* File: Final_all_v1.pex.spi.pex
* Created: Mon Jan 17 03:43:47 2022
* Program "Calibre xRC"
* Version "v2021.1_33.19"
* Nominal Temperature: 27C
* Circuit Temperature: 27C
* 
.subckt PM_FINAL_ALL_V1%XI27/NET096 23 28 33 34 38 43
c0 66 0 0.138331f
c1 65 0 0.116154f
c2 62 0 0.0277909f
c3 58 0 0.0341738f
c4 57 0 0.172982f
c5 54 0 0.0376838f
c6 45 0 0.00315755f
c7 41 0 0.139586f
c8 40 0 0.00154851f
c9 31 0 0.0993371f
c10 28 0 6.94513e-19
c11 26 0 0.11294f
c12 17 0 0.0864256f
c13 16 0 0.0163989f
c14 14 0 0.0278226f
c15 12 0 0.17103f
c16 11 0 0.0293087f
c17 9 0 0.0331066f
c18 6 0 0.0999407f
c19 4 0 0.115503f
c20 3 0 0.0349386f
r21 65 66 8
r22 57 58 8
r23 45 65 16.3327
r24 43 45 4.59
r25 41 62 8
r26 40 41 16.3327
r27 38 40 4.59
r28 36 57 16.3327
r29 34 36 4.608
r30 33 36 4.572
r31 31 54 8
r32 30 31 16.3327
r33 28 30 4.572
r34 26 50 8
r35 25 26 16.3327
r36 23 25 4.572
r37 17 66 0.316574
r38 15 62 0.0948519
r39 15 16 0.0275239
r40 13 58 0.108093
r41 13 14 0.00715299
r42 12 50 0.174296
r43 10 54 0.0936482
r44 10 11 0.0275239
r45 9 17 0.0364548
r46 8 16 0.0275239
r47 8 9 0.0878704
r48 7 14 0.0275239
r49 6 16 0.00715299
r50 6 7 0.263611
r51 5 11 0.00715299
r52 4 14 0.0275239
r53 4 5 0.26963
r54 3 12 0.0424285
r55 2 11 0.0275239
r56 2 3 0.0866667
.ends

.subckt PM_FINAL_ALL_V1%XI27/NET093 2 7
c0 10 0 0.181981f
c1 7 0 0.00996972f
c2 4 0 0.0179763f
r3 9 10 16.3327
r4 7 9 4.572
r5 5 10 0.19963
r6 4 5 16.3327
r7 2 4 4.608
.ends

.subckt PM_FINAL_ALL_V1%XI27/NET089 2 7
c0 10 0 0.22744f
c1 7 0 0.00914496f
c2 4 0 0.0169064f
r3 9 10 16.3327
r4 7 9 4.59
r5 5 10 0.19963
r6 4 5 16.3327
r7 2 4 4.59
.ends

.subckt PM_FINAL_ALL_V1%XI28/NET096 23 28 33 34 38 43
c0 66 0 0.129484f
c1 65 0 0.113802f
c2 62 0 0.0328565f
c3 58 0 0.0375799f
c4 57 0 0.172987f
c5 54 0 0.0401361f
c6 45 0 0.00315755f
c7 41 0 0.144642f
c8 40 0 0.00154851f
c9 31 0 0.106414f
c10 28 0 6.94513e-19
c11 26 0 0.115941f
c12 17 0 0.0864256f
c13 16 0 0.0163992f
c14 14 0 0.0278226f
c15 12 0 0.17823f
c16 11 0 0.0328527f
c17 9 0 0.0331066f
c18 6 0 0.105745f
c19 4 0 0.121428f
c20 3 0 0.0351667f
r21 65 66 8
r22 57 58 8
r23 45 65 16.3327
r24 43 45 4.59
r25 41 62 8
r26 40 41 16.3327
r27 38 40 4.59
r28 36 57 16.3327
r29 34 36 4.608
r30 33 36 4.572
r31 31 54 8
r32 30 31 16.3327
r33 28 30 4.572
r34 26 50 8
r35 25 26 16.3327
r36 23 25 4.572
r37 17 66 0.316574
r38 15 62 0.0948519
r39 15 16 0.0275239
r40 13 58 0.108093
r41 13 14 0.00715299
r42 12 50 0.174296
r43 10 54 0.0936482
r44 10 11 0.0275239
r45 9 17 0.0364548
r46 8 16 0.0275239
r47 8 9 0.0878704
r48 7 14 0.0275239
r49 6 16 0.00715299
r50 6 7 0.263611
r51 5 11 0.00715299
r52 4 14 0.0275239
r53 4 5 0.26963
r54 3 12 0.0424285
r55 2 11 0.0275239
r56 2 3 0.0866667
.ends

.subckt PM_FINAL_ALL_V1%XI28/NET093 2 7
c0 10 0 0.183407f
c1 7 0 0.00996972f
c2 4 0 0.0179217f
r3 9 10 16.3327
r4 7 9 4.572
r5 5 10 0.19963
r6 4 5 16.3327
r7 2 4 4.608
.ends

.subckt PM_FINAL_ALL_V1%XI28/NET089 2 7
c0 10 0 0.227336f
c1 7 0 0.00980745f
c2 4 0 0.0169064f
r3 9 10 16.3327
r4 7 9 4.59
r5 5 10 0.19963
r6 4 5 16.3327
r7 2 4 4.59
.ends

.subckt PM_FINAL_ALL_V1%XI29/XI42/NET067 9 13 40 47 54
c0 86 0 0.0493048f
c1 85 0 0.216926f
c2 83 0 0.075759f
c3 71 0 0.078063f
c4 52 0 0.087853f
c5 45 0 0.164981f
c6 42 0 0.00570167f
c7 34 0 0.139098f
c8 33 0 0.149795f
c9 29 0 0.169972f
c10 28 0 0.168964f
c11 25 0 0.333018f
c12 22 0 0.143581f
c13 15 0 0.0347961f
c14 13 0 0.139077f
c15 9 0 0.10301f
c16 2 0 0.0774768f
r17 69 86 0.0487198
r18 69 85 0.0461131
r19 61 83 0.0461131
r20 57 85 0.364259
r21 56 57 16.3327
r22 54 56 4.59
r23 52 86 0.0798
r24 49 52 8.16635
r25 49 69 16.3327
r26 47 49 1.53
r27 45 83 0.0738889
r28 42 45 8.16635
r29 42 61 16.3327
r30 40 42 1.53
r31 38 71 0.0461636
r32 38 69 8
r33 37 38 8
r34 34 61 8
r35 33 37 0.352685
r36 33 34 8
r37 27 29 0.0163276
r38 27 28 0.302037
r39 25 71 0.465833
r40 24 25 4
r41 22 28 0.039111
r42 22 24 0.197037
r43 11 15 7.73958
r44 11 13 55.25
r45 7 15 7.73958
r46 7 9 31.5
r47 5 29 0.104186
r48 4 5 13.2552
r49 2 15 1.29764
r50 2 4 5.24681
.ends

.subckt PM_FINAL_ALL_V1%XI29/XI42/NET44 2 7
c0 9 0 0.0090394f
c1 5 0 0.166713f
r2 9 10 16.3327
r3 7 9 4.59
r4 5 10 0.19963
r5 4 5 16.3327
r6 2 4 4.59
.ends

.subckt PM_FINAL_ALL_V1%XI29/XI43/NET067 9 13 40 47 54
c0 86 0 0.0531233f
c1 85 0 0.225241f
c2 83 0 0.075759f
c3 71 0 0.0781998f
c4 52 0 0.0951799f
c5 45 0 0.164943f
c6 42 0 0.00570167f
c7 34 0 0.139023f
c8 33 0 0.122258f
c9 29 0 0.16916f
c10 28 0 0.168919f
c11 25 0 0.333509f
c12 22 0 0.152178f
c13 15 0 0.0347961f
c14 13 0 0.139461f
c15 9 0 0.100791f
c16 2 0 0.0771886f
r17 69 86 0.0487198
r18 69 85 0.0461131
r19 61 83 0.0461131
r20 57 85 0.364259
r21 56 57 16.3327
r22 54 56 4.59
r23 52 86 0.0798
r24 49 52 8.16635
r25 49 69 16.3327
r26 47 49 1.53
r27 45 83 0.0738889
r28 42 45 8.16635
r29 42 61 16.3327
r30 40 42 1.53
r31 38 71 0.0461636
r32 38 69 8
r33 37 38 8
r34 34 61 8
r35 33 37 0.352685
r36 33 34 8
r37 27 29 0.0163276
r38 27 28 0.302037
r39 25 71 0.465833
r40 24 25 4
r41 22 28 0.039111
r42 22 24 0.197037
r43 11 15 7.73958
r44 11 13 55.25
r45 7 15 7.73958
r46 7 9 31.5
r47 5 29 0.104186
r48 4 5 13.2552
r49 2 15 1.29764
r50 2 4 5.24681
.ends

.subckt PM_FINAL_ALL_V1%XI29/XI43/NET44 2 7
c0 9 0 0.00905842f
c1 5 0 0.166724f
r2 9 10 16.3327
r3 7 9 4.59
r4 5 10 0.19963
r5 4 5 16.3327
r6 2 4 4.59
.ends

.subckt PM_FINAL_ALL_V1%XI26/NET0158 6 11 175 178 181 184 187 190 193 196
c0 196 0 0.159846f
c1 193 0 0.170846f
c2 190 0 0.170823f
c3 187 0 0.169916f
c4 169 0 0.0771838f
c5 168 0 0.0822668f
c6 167 0 0.0833799f
c7 166 0 0.0827037f
c8 139 0 0.1081f
c9 129 0 8.74735f
c10 121 0 0.106936f
c11 115 0 0.0151741f
c12 114 0 0.413861f
c13 112 0 0.0151769f
c14 111 0 0.577592f
c15 109 0 0.015849f
c16 108 0 0.454205f
c17 106 0 0.0150092f
c18 105 0 0.43152f
c19 68 0 0.351826f
c20 67 0 0.133269f
c21 62 0 0.106404f
c22 55 0 0.352394f
c23 54 0 0.131729f
c24 49 0 0.108652f
c25 42 0 0.436244f
c26 41 0 0.135087f
c27 36 0 0.108714f
c28 29 0 0.378187f
c29 28 0 0.131561f
c30 23 0 0.108652f
c31 14 0 0.127437f
c32 9 0 0.215608f
c33 5 0 0.0591424f
r34 173 196 50.25
r35 172 193 50.25
r36 171 190 50.25
r37 170 187 50.25
r38 169 184 22.75
r39 168 181 22.75
r40 167 178 22.75
r41 166 175 22.75
r42 141 142 8
r43 138 141 0.593704
r44 138 139 8
r45 135 138 0.965741
r46 135 136 8
r47 132 135 1.56333
r48 132 133 8
r49 129 132 1.55685
r50 129 130 8
r51 122 139 0.154074
r52 121 122 8
r53 119 121 0.148936
r54 114 142 0.908796
r55 114 115 0.0366364
r56 111 136 0.907593
r57 111 112 0.0366364
r58 108 133 0.91
r59 108 109 0.0366364
r60 105 130 0.91
r61 105 106 0.0366364
r62 68 115 0.735463
r63 67 68 8
r64 65 173 4.73303
r65 65 169 4.73303
r66 62 65 6.2234
r67 62 67 13.2552
r68 55 112 0.735463
r69 54 55 8
r70 52 172 4.73303
r71 52 168 4.73303
r72 49 52 6.2234
r73 49 54 13.2552
r74 42 109 0.735463
r75 41 42 8
r76 39 171 4.73303
r77 39 167 4.73303
r78 36 39 6.2234
r79 36 41 13.2552
r80 29 106 0.735463
r81 28 29 8
r82 26 170 4.73303
r83 26 166 4.73303
r84 23 26 6.2234
r85 23 28 13.2552
r86 13 14 16.3327
r87 11 13 4.59
r88 8 9 8.16635
r89 6 8 1.53
r90 5 119 0.001755
r91 4 9 0.1632
r92 4 5 0.0375995
r93 3 14 0.1258
r94 3 5 0.0375995
.ends

.subckt PM_FINAL_ALL_V1%XI26/NET0105 6 11 163 166 169 172 175 178 181 184
c0 184 0 0.163307f
c1 181 0 0.165185f
c2 172 0 0.168029f
c3 169 0 0.164445f
c4 159 0 0.0780228f
c5 158 0 0.0780235f
c6 155 0 0.082799f
c7 154 0 0.0780235f
c8 152 0 0.104429f
c9 149 0 1.26557f
c10 148 0 0.0560106f
c11 145 0 0.103962f
c12 141 0 0.0558014f
c13 127 0 5.35439f
c14 114 0 0.285576f
c15 113 0 5.46936f
c16 109 0 0.157503f
c17 103 0 0.0154568f
c18 102 0 0.491379f
c19 100 0 0.0146664f
c20 99 0 0.553486f
c21 68 0 0.884854f
c22 67 0 0.105619f
c23 62 0 0.104998f
c24 55 0 0.862416f
c25 54 0 0.104577f
c26 49 0 0.105477f
c27 42 0 0.390441f
c28 41 0 0.111937f
c29 36 0 0.108654f
c30 29 0 0.372038f
c31 28 0 0.10873f
c32 23 0 0.104998f
c33 14 0 0.146914f
c34 9 0 0.257771f
c35 5 0 0.0591424f
r36 161 184 51.25
r37 160 181 51.25
r38 159 178 21.75
r39 158 175 21.75
r40 157 172 51.25
r41 156 169 51.25
r42 155 166 21.75
r43 154 163 21.75
r44 148 152 8
r45 148 149 8
r46 142 149 3.0887
r47 141 145 8
r48 141 142 8
r49 134 135 8
r50 131 134 1.56204
r51 131 132 8
r52 127 131 0.575556
r53 127 152 8
r54 123 124 8
r55 120 123 1.56074
r56 120 121 8
r57 117 120 0.574259
r58 117 145 8
r59 113 117 1.20426
r60 113 114 8
r61 110 114 0.405648
r62 109 110 8
r63 107 109 0.147447
r64 102 124 0.660833
r65 102 103 0.0330909
r66 99 121 0.662037
r67 99 100 0.0330909
r68 68 135 1.44926
r69 67 68 8
r70 65 161 4.73303
r71 65 159 4.73303
r72 62 65 6.2234
r73 62 67 13.2552
r74 55 132 1.44926
r75 54 55 8
r76 52 160 4.73303
r77 52 158 4.73303
r78 49 52 6.2234
r79 49 54 13.2552
r80 42 103 0.730648
r81 41 42 8
r82 39 157 4.73303
r83 39 155 4.73303
r84 36 39 6.2234
r85 36 41 13.2552
r86 29 100 0.730648
r87 28 29 8
r88 26 156 4.73303
r89 26 154 4.73303
r90 23 26 6.2234
r91 23 28 13.2552
r92 13 14 16.3327
r93 11 13 4.59
r94 8 9 8.16635
r95 6 8 1.53
r96 5 107 0.001755
r97 4 9 0.1632
r98 4 5 0.0375995
r99 3 14 0.1258
r100 3 5 0.0375995
.ends

.subckt PM_FINAL_ALL_V1%XI26/NET0116 6 11 165 168 171 174 177 180 183 186
c0 186 0 0.166611f
c1 183 0 0.16526f
c2 174 0 0.164577f
c3 171 0 0.16549f
c4 161 0 0.0796951f
c5 160 0 0.0796951f
c6 157 0 0.0796951f
c7 156 0 0.0808082f
c8 154 0 0.0592476f
c9 151 0 1.13528f
c10 150 0 0.0369328f
c11 147 0 0.0639723f
c12 143 0 0.0323077f
c13 129 0 5.32999f
c14 116 0 0.583833f
c15 115 0 5.49859f
c16 112 0 0.0180654f
c17 111 0 0.1559f
c18 105 0 0.0180437f
c19 104 0 0.531263f
c20 102 0 0.0191181f
c21 101 0 0.617625f
c22 98 0 0.0180923f
c23 68 0 0.847181f
c24 67 0 0.108973f
c25 62 0 0.104886f
c26 55 0 0.806792f
c27 54 0 0.105181f
c28 49 0 0.104886f
c29 42 0 0.40479f
c30 41 0 0.105181f
c31 36 0 0.104886f
c32 29 0 0.467572f
c33 28 0 0.105549f
c34 23 0 0.105002f
c35 14 0 0.145019f
c36 9 0 0.250933f
c37 5 0 0.057783f
r38 163 186 50.5
r39 162 183 50.5
r40 161 180 22.5
r41 160 177 22.5
r42 159 174 50.5
r43 158 171 50.5
r44 157 168 22.5
r45 156 165 22.5
r46 150 154 8
r47 150 151 8
r48 144 151 3.0887
r49 143 147 8
r50 143 144 8
r51 136 154 8
r52 133 136 0.180185
r53 133 134 8
r54 129 133 3.12019
r55 129 130 8
r56 125 147 8
r57 122 125 0.184074
r58 122 123 8
r59 119 122 3.12278
r60 119 120 8
r61 115 119 1.35593
r62 115 116 8
r63 111 112 8
r64 109 111 0.148191
r65 104 123 0.410463
r66 104 105 0.0330909
r67 101 120 0.409259
r68 101 102 0.0330909
r69 99 112 0.06604
r70 98 116 0.676
r71 98 99 0.0363174
r72 68 134 1.2025
r73 67 68 8
r74 65 163 4.73303
r75 65 161 4.73303
r76 62 65 6.20426
r77 62 67 13.2552
r78 55 130 1.2013
r79 54 55 8
r80 52 162 4.73303
r81 52 160 4.73303
r82 49 52 6.20426
r83 49 54 13.2552
r84 42 105 0.734259
r85 41 42 8
r86 39 159 4.73303
r87 39 157 4.73303
r88 36 39 6.20426
r89 36 41 13.2552
r90 29 102 0.734259
r91 28 29 8
r92 26 158 4.73303
r93 26 156 4.73303
r94 23 26 6.20426
r95 23 28 13.2552
r96 13 14 16.3327
r97 11 13 4.59
r98 8 9 8.16635
r99 6 8 1.53
r100 5 109 0.001755
r101 4 9 0.1632
r102 4 5 0.0375995
r103 3 14 0.1258
r104 3 5 0.0375995
.ends

.subckt PM_FINAL_ALL_V1%XI26/XI3/NET030 1 6
c0 8 0 0.00740437f
c1 4 0 0.184894f
r2 8 9 16.3327
r3 6 8 4.572
r4 4 9 0.19963
r5 3 4 16.3327
r6 1 3 4.608
.ends

.subckt PM_FINAL_ALL_V1%XI26/XI2/NET030 1 6
c0 8 0 0.00740437f
c1 4 0 0.187426f
r2 8 9 16.3327
r3 6 8 4.59
r4 4 9 0.19963
r5 3 4 16.3327
r6 1 3 4.59
.ends

.subckt PM_FINAL_ALL_V1%XI26/XI1/NET030 1 6
c0 8 0 0.00740437f
c1 4 0 0.190066f
c2 3 0 0.00583401f
r3 8 9 16.3327
r4 6 8 4.59
r5 4 9 0.19963
r6 3 4 16.3327
r7 1 3 4.59
.ends

.subckt PM_FINAL_ALL_V1%XI26/XI0/NET030 1 6
c0 8 0 0.00740437f
c1 4 0 0.186555f
r2 8 9 16.3327
r3 6 8 4.59
r4 4 9 0.19963
r5 3 4 16.3327
r6 1 3 4.59
.ends

.subckt PM_FINAL_ALL_V1%XI26/XI3/NET40 1 6
c0 8 0 0.00741123f
c1 4 0 0.193423f
r2 8 9 16.3327
r3 6 8 4.59
r4 4 9 0.19963
r5 3 4 16.3327
r6 1 3 4.59
.ends

.subckt PM_FINAL_ALL_V1%XI26/XI2/NET40 1 6
c0 8 0 0.00741123f
c1 4 0 0.197517f
r2 8 9 16.3327
r3 6 8 4.59
r4 4 9 0.19963
r5 3 4 16.3327
r6 1 3 4.59
.ends

.subckt PM_FINAL_ALL_V1%XI26/XI1/NET40 1 6
c0 8 0 0.00741123f
c1 4 0 0.195755f
c2 3 0 0.00848479f
r3 8 9 16.3327
r4 6 8 4.59
r5 4 9 0.19963
r6 3 4 16.3327
r7 1 3 4.59
.ends

.subckt PM_FINAL_ALL_V1%XI26/XI0/NET40 1 6
c0 8 0 0.00741123f
c1 4 0 0.197088f
c2 3 0 0.00848854f
r3 8 9 16.3327
r4 6 8 4.59
r5 4 9 0.19963
r6 3 4 16.3327
r7 1 3 4.59
.ends

.subckt PM_FINAL_ALL_V1%XI26/XI3/NET44 1 6
c0 8 0 0.00764308f
c1 4 0 0.190216f
c2 3 0 0.0121259f
r3 8 9 16.3327
r4 6 8 4.59
r5 4 9 0.19963
r6 3 4 16.3327
r7 1 3 4.59
.ends

.subckt PM_FINAL_ALL_V1%XI26/XI2/NET44 1 6
c0 8 0 0.00764308f
c1 4 0 0.194134f
c2 3 0 0.00947511f
r3 8 9 16.3327
r4 6 8 4.59
r5 4 9 0.19963
r6 3 4 16.3327
r7 1 3 4.59
.ends

.subckt PM_FINAL_ALL_V1%XI26/XI1/NET44 1 6
c0 8 0 0.00764308f
c1 4 0 0.185886f
r2 8 9 16.3327
r3 6 8 4.59
r4 4 9 0.19963
r5 3 4 16.3327
r6 1 3 4.59
.ends

.subckt PM_FINAL_ALL_V1%XI26/XI0/NET44 1 6
c0 8 0 0.00816364f
c1 4 0 0.189782f
c2 3 0 0.00848854f
r3 8 9 16.3327
r4 6 8 4.59
r5 4 9 0.19963
r6 3 4 16.3327
r7 1 3 4.59
.ends

.subckt PM_FINAL_ALL_V1%XI26/XI7/NET030 1 6
c0 8 0 0.00740437f
c1 4 0 0.188412f
r2 8 9 16.3327
r3 6 8 4.572
r4 4 9 0.19963
r5 3 4 16.3327
r6 1 3 4.608
.ends

.subckt PM_FINAL_ALL_V1%XI26/XI6/NET030 1 6
c0 8 0 0.00740437f
c1 4 0 0.185157f
r2 8 9 16.3327
r3 6 8 4.59
r4 4 9 0.19963
r5 3 4 16.3327
r6 1 3 4.59
.ends

.subckt PM_FINAL_ALL_V1%XI26/XI5/NET030 1 6
c0 8 0 0.00740437f
c1 4 0 0.186722f
r2 8 9 16.3327
r3 6 8 4.59
r4 4 9 0.19963
r5 3 4 16.3327
r6 1 3 4.59
.ends

.subckt PM_FINAL_ALL_V1%XI26/XI4/NET030 1 6
c0 8 0 0.01325f
c1 4 0 0.187631f
r2 8 9 16.3327
r3 6 8 4.59
r4 4 9 0.19963
r5 3 4 16.3327
r6 1 3 4.59
.ends

.subckt PM_FINAL_ALL_V1%XI26/XI7/NET40 1 6
c0 8 0 0.00741123f
c1 4 0 0.195721f
r2 8 9 16.3327
r3 6 8 4.59
r4 4 9 0.19963
r5 3 4 16.3327
r6 1 3 4.59
.ends

.subckt PM_FINAL_ALL_V1%XI26/XI6/NET40 1 6
c0 8 0 0.00741123f
c1 4 0 0.191667f
r2 8 9 16.3327
r3 6 8 4.59
r4 4 9 0.19963
r5 3 4 16.3327
r6 1 3 4.59
.ends

.subckt PM_FINAL_ALL_V1%XI26/XI5/NET40 1 6
c0 8 0 0.013442f
c1 4 0 0.196116f
r2 8 9 16.3327
r3 6 8 4.59
r4 4 9 0.19963
r5 3 4 16.3327
r6 1 3 4.59
.ends

.subckt PM_FINAL_ALL_V1%XI26/XI4/NET40 1 6
c0 8 0 0.00741123f
c1 4 0 0.191667f
r2 8 9 16.3327
r3 6 8 4.59
r4 4 9 0.19963
r5 3 4 16.3327
r6 1 3 4.59
.ends

.subckt PM_FINAL_ALL_V1%XI26/XI7/NET44 1 6
c0 8 0 0.00764308f
c1 4 0 0.191154f
r2 8 9 16.3327
r3 6 8 4.59
r4 4 9 0.19963
r5 3 4 16.3327
r6 1 3 4.59
.ends

.subckt PM_FINAL_ALL_V1%XI26/XI6/NET44 1 6
c0 8 0 0.00764308f
c1 4 0 0.185904f
r2 8 9 16.3327
r3 6 8 4.59
r4 4 9 0.19963
r5 3 4 16.3327
r6 1 3 4.59
.ends

.subckt PM_FINAL_ALL_V1%XI26/XI5/NET44 1 6
c0 8 0 0.00764308f
c1 4 0 0.185142f
r2 8 9 16.3327
r3 6 8 4.59
r4 4 9 0.19963
r5 3 4 16.3327
r6 1 3 4.59
.ends

.subckt PM_FINAL_ALL_V1%XI26/XI4/NET44 1 6
c0 8 0 0.00814177f
c1 4 0 0.18677f
r2 8 9 16.3327
r3 6 8 4.59
r4 4 9 0.19963
r5 3 4 16.3327
r6 1 3 4.59
.ends

.subckt PM_FINAL_ALL_V1%XI29/XI47/NET14 4 9 26 30
c0 32 0 0.0376597f
c1 30 0 0.165426f
c2 26 0 0.110349f
c3 22 0 0.16596f
c4 19 0 0.0791858f
c5 12 0 0.507182f
r6 37 43 0.0141465
r7 36 43 0.0141465
r8 28 32 7.73958
r9 28 30 55.25
r10 24 32 7.73958
r11 24 26 31.5
r12 22 43 0.132702
r13 21 22 13.2552
r14 19 32 1.29764
r15 19 21 5.24681
r16 12 36 0.1258
r17 11 12 16.3327
r18 9 11 4.59
r19 7 37 0.1632
r20 6 7 8.16635
r21 4 6 1.53
.ends

.subckt PM_FINAL_ALL_V1%XI29/NET0126 4 9 30 34
c0 36 0 0.0376597f
c1 34 0 0.165426f
c2 30 0 0.110349f
c3 26 0 0.16596f
c4 23 0 0.0791858f
c5 12 0 0.507182f
r6 32 36 7.73958
r7 32 34 55.25
r8 28 36 7.73958
r9 28 30 31.5
r10 26 43 0.132702
r11 25 26 13.2552
r12 23 36 1.29764
r13 23 25 5.24681
r14 21 43 0.0141465
r15 20 43 0.0141465
r16 12 20 0.1258
r17 11 12 16.3327
r18 9 11 4.59
r19 7 21 0.1632
r20 6 7 8.16635
r21 4 6 1.53
.ends

.subckt PM_FINAL_ALL_V1%XI29/NET0106 4 9 26 30
c0 32 0 0.0376597f
c1 30 0 0.165426f
c2 26 0 0.110349f
c3 22 0 0.167476f
c4 19 0 0.0791858f
c5 12 0 0.50848f
r6 37 43 0.0141465
r7 36 43 0.0141465
r8 28 32 7.73958
r9 28 30 55.25
r10 24 32 7.73958
r11 24 26 31.5
r12 22 43 0.132702
r13 21 22 13.2552
r14 19 32 1.29764
r15 19 21 5.24681
r16 12 36 0.1258
r17 11 12 16.3327
r18 9 11 4.59
r19 7 37 0.1632
r20 6 7 8.16635
r21 4 6 1.53
.ends

.subckt PM_FINAL_ALL_V1%XI29/XI59/NET14 4 9 30 34
c0 36 0 0.0376597f
c1 34 0 0.165426f
c2 30 0 0.110349f
c3 26 0 0.167477f
c4 23 0 0.0791858f
c5 12 0 0.50848f
r6 32 36 7.73958
r7 32 34 55.25
r8 28 36 7.73958
r9 28 30 31.5
r10 26 43 0.132702
r11 25 26 13.2552
r12 23 36 1.29764
r13 23 25 5.24681
r14 21 43 0.0141465
r15 20 43 0.0141465
r16 12 20 0.1258
r17 11 12 16.3327
r18 9 11 4.59
r19 7 21 0.1632
r20 6 7 8.16635
r21 4 6 1.53
.ends

.subckt PM_FINAL_ALL_V1%XI29/NET099 4 9 26 30
c0 32 0 0.0376597f
c1 30 0 0.165426f
c2 26 0 0.110349f
c3 22 0 0.166123f
c4 19 0 0.0791858f
c5 12 0 0.506696f
r6 37 43 0.0141465
r7 36 43 0.0141465
r8 28 32 7.73958
r9 28 30 55.25
r10 24 32 7.73958
r11 24 26 31.5
r12 22 43 0.132702
r13 21 22 13.2552
r14 19 32 1.29764
r15 19 21 5.24681
r16 12 36 0.1258
r17 11 12 16.3327
r18 9 11 4.59
r19 7 37 0.1632
r20 6 7 8.16635
r21 4 6 1.53
.ends

.subckt PM_FINAL_ALL_V1%XI29/XI65/NET14 4 9 30 34
c0 36 0 0.0376597f
c1 34 0 0.165426f
c2 30 0 0.111201f
c3 26 0 0.166542f
c4 23 0 0.0791858f
c5 12 0 0.506726f
r6 32 36 7.73958
r7 32 34 55.25
r8 28 36 7.73958
r9 28 30 31.5
r10 26 43 0.132702
r11 25 26 13.2552
r12 23 36 1.29764
r13 23 25 5.24681
r14 21 43 0.0141465
r15 20 43 0.0141465
r16 12 20 0.1258
r17 11 12 16.3327
r18 9 11 4.59
r19 7 21 0.1632
r20 6 7 8.16635
r21 4 6 1.53
.ends

.subckt PM_FINAL_ALL_V1%XI29/NET094 4 9 26 30
c0 32 0 0.0376597f
c1 30 0 0.182365f
c2 26 0 0.119248f
c3 22 0 0.172257f
c4 19 0 0.0849849f
c5 12 0 0.517653f
r6 37 43 0.0141465
r7 36 43 0.0141465
r8 28 32 7.73958
r9 28 30 55.25
r10 24 32 7.73958
r11 24 26 31.5
r12 22 43 0.132702
r13 21 22 13.2552
r14 19 32 1.29764
r15 19 21 5.24681
r16 12 36 0.1258
r17 11 12 16.3327
r18 9 11 4.59
r19 7 37 0.1632
r20 6 7 8.16635
r21 4 6 1.53
.ends

.subckt PM_FINAL_ALL_V1%XI29/XI51/NET14 4 9 30 34
c0 36 0 0.0376597f
c1 34 0 0.165426f
c2 30 0 0.110349f
c3 26 0 0.16624f
c4 23 0 0.0791858f
c5 12 0 0.528313f
r6 32 36 7.73958
r7 32 34 55.25
r8 28 36 7.73958
r9 28 30 31.5
r10 26 43 0.132702
r11 25 26 13.2552
r12 23 36 1.29764
r13 23 25 5.24681
r14 21 43 0.0141465
r15 20 43 0.0141465
r16 12 20 0.1258
r17 11 12 16.3327
r18 9 11 4.59
r19 7 21 0.1632
r20 6 7 8.16635
r21 4 6 1.53
.ends

.subckt PM_FINAL_ALL_V1%XI29/NET0110 4 9 26 30
c0 32 0 0.0376597f
c1 30 0 0.165426f
c2 26 0 0.110349f
c3 22 0 0.166016f
c4 19 0 0.0791858f
c5 12 0 0.506744f
r6 37 43 0.0141465
r7 36 43 0.0141465
r8 28 32 7.73958
r9 28 30 55.25
r10 24 32 7.73958
r11 24 26 31.5
r12 22 43 0.132702
r13 21 22 13.2552
r14 19 32 1.29764
r15 19 21 5.24681
r16 12 36 0.1258
r17 11 12 16.3327
r18 9 11 4.59
r19 7 37 0.1632
r20 6 7 8.16635
r21 4 6 1.53
.ends

.subckt PM_FINAL_ALL_V1%XI29/XI53/NET14 4 9 30 34
c0 36 0 0.0376597f
c1 34 0 0.165426f
c2 30 0 0.110349f
c3 26 0 0.166016f
c4 23 0 0.0791858f
c5 12 0 0.506744f
r6 32 36 7.73958
r7 32 34 55.25
r8 28 36 7.73958
r9 28 30 31.5
r10 26 43 0.132702
r11 25 26 13.2552
r12 23 36 1.29764
r13 23 25 5.24681
r14 21 43 0.0141465
r15 20 43 0.0141465
r16 12 20 0.1258
r17 11 12 16.3327
r18 9 11 4.59
r19 7 21 0.1632
r20 6 7 8.16635
r21 4 6 1.53
.ends

.subckt PM_FINAL_ALL_V1%XI29/XI38/NET14 4 9 26 30
c0 32 0 0.0376597f
c1 30 0 0.168381f
c2 26 0 0.11342f
c3 22 0 0.173535f
c4 19 0 0.0827356f
c5 12 0 0.525447f
r6 37 43 0.0141465
r7 36 43 0.0141465
r8 28 32 7.73958
r9 28 30 55.25
r10 24 32 7.73958
r11 24 26 31.5
r12 22 43 0.132702
r13 21 22 13.2552
r14 19 32 1.29764
r15 19 21 5.24681
r16 12 36 0.1258
r17 11 12 16.3327
r18 9 11 4.59
r19 7 37 0.1632
r20 6 7 8.16635
r21 4 6 1.53
.ends

.subckt PM_FINAL_ALL_V1%XI29/NET109 4 9 30 34
c0 36 0 0.0376597f
c1 34 0 0.167754f
c2 30 0 0.112796f
c3 26 0 0.172892f
c4 23 0 0.082787f
c5 12 0 0.541472f
r6 32 36 7.73958
r7 32 34 55.25
r8 28 36 7.73958
r9 28 30 31.5
r10 26 43 0.132702
r11 25 26 13.2552
r12 23 36 1.29764
r13 23 25 5.24681
r14 21 43 0.0141465
r15 20 43 0.0141465
r16 12 20 0.1258
r17 11 12 16.3327
r18 9 11 4.59
r19 7 21 0.1632
r20 6 7 8.16635
r21 4 6 1.53
.ends

.subckt PM_FINAL_ALL_V1%XI29/XI40/NET14 4 9 26 30
c0 32 0 0.0376597f
c1 30 0 0.165426f
c2 26 0 0.110349f
c3 22 0 0.16596f
c4 19 0 0.0791858f
c5 12 0 0.529002f
r6 37 43 0.0141465
r7 36 43 0.0141465
r8 28 32 7.73958
r9 28 30 55.25
r10 24 32 7.73958
r11 24 26 31.5
r12 22 43 0.132702
r13 21 22 13.2552
r14 19 32 1.29764
r15 19 21 5.24681
r16 12 36 0.1258
r17 11 12 16.3327
r18 9 11 4.59
r19 7 37 0.1632
r20 6 7 8.16635
r21 4 6 1.53
.ends

.subckt PM_FINAL_ALL_V1%XI29/NET113 4 9 30 34
c0 36 0 0.0376597f
c1 34 0 0.165426f
c2 30 0 0.110349f
c3 26 0 0.16596f
c4 23 0 0.0791858f
c5 12 0 0.510291f
r6 32 36 7.73958
r7 32 34 55.25
r8 28 36 7.73958
r9 28 30 31.5
r10 26 43 0.132702
r11 25 26 13.2552
r12 23 36 1.29764
r13 23 25 5.24681
r14 21 43 0.0141465
r15 20 43 0.0141465
r16 12 20 0.1258
r17 11 12 16.3327
r18 9 11 4.59
r19 7 21 0.1632
r20 6 7 8.16635
r21 4 6 1.53
.ends

.subckt PM_FINAL_ALL_V1%XI29/NET0162 4 9 26 30
c0 32 0 0.0376597f
c1 30 0 0.165426f
c2 26 0 0.110349f
c3 22 0 0.166478f
c4 19 0 0.0791858f
c5 12 0 0.503565f
r6 37 43 0.0141465
r7 36 43 0.0141465
r8 28 32 7.73958
r9 28 30 55.25
r10 24 32 7.73958
r11 24 26 31.5
r12 22 43 0.132702
r13 21 22 13.2552
r14 19 32 1.29764
r15 19 21 5.24681
r16 12 36 0.1258
r17 11 12 16.3327
r18 9 11 4.59
r19 7 37 0.1632
r20 6 7 8.16635
r21 4 6 1.53
.ends

.subckt PM_FINAL_ALL_V1%XI29/XI71/NET14 4 9 30 34
c0 36 0 0.0376597f
c1 34 0 0.165426f
c2 30 0 0.110349f
c3 26 0 0.166122f
c4 23 0 0.0791858f
c5 12 0 0.506699f
r6 32 36 7.73958
r7 32 34 55.25
r8 28 36 7.73958
r9 28 30 31.5
r10 26 43 0.132702
r11 25 26 13.2552
r12 23 36 1.29764
r13 23 25 5.24681
r14 21 43 0.0141465
r15 20 43 0.0141465
r16 12 20 0.1258
r17 11 12 16.3327
r18 9 11 4.59
r19 7 21 0.1632
r20 6 7 8.16635
r21 4 6 1.53
.ends

.subckt PM_FINAL_ALL_V1%XI29/NET0182 4 9 26 30
c0 32 0 0.0376597f
c1 30 0 0.165426f
c2 26 0 0.110349f
c3 22 0 0.166122f
c4 19 0 0.0791858f
c5 12 0 0.506696f
r6 37 43 0.0141465
r7 36 43 0.0141465
r8 28 32 7.73958
r9 28 30 55.25
r10 24 32 7.73958
r11 24 26 31.5
r12 22 43 0.132702
r13 21 22 13.2552
r14 19 32 1.29764
r15 19 21 5.24681
r16 12 36 0.1258
r17 11 12 16.3327
r18 9 11 4.59
r19 7 37 0.1632
r20 6 7 8.16635
r21 4 6 1.53
.ends

.subckt PM_FINAL_ALL_V1%XI29/XI70/NET14 4 9 30 34
c0 36 0 0.0376597f
c1 34 0 0.165426f
c2 30 0 0.110349f
c3 26 0 0.166122f
c4 23 0 0.0791858f
c5 12 0 0.506696f
r6 32 36 7.73958
r7 32 34 55.25
r8 28 36 7.73958
r9 28 30 31.5
r10 26 43 0.132702
r11 25 26 13.2552
r12 23 36 1.29764
r13 23 25 5.24681
r14 21 43 0.0141465
r15 20 43 0.0141465
r16 12 20 0.1258
r17 11 12 16.3327
r18 9 11 4.59
r19 7 21 0.1632
r20 6 7 8.16635
r21 4 6 1.53
.ends

.subckt PM_FINAL_ALL_V1%XI29/NET0142 4 9 26 30
c0 32 0 0.0376597f
c1 30 0 0.165426f
c2 26 0 0.110349f
c3 22 0 0.166016f
c4 19 0 0.0791858f
c5 12 0 0.506744f
r6 37 43 0.0141465
r7 36 43 0.0141465
r8 28 32 7.73958
r9 28 30 55.25
r10 24 32 7.73958
r11 24 26 31.5
r12 22 43 0.132702
r13 21 22 13.2552
r14 19 32 1.29764
r15 19 21 5.24681
r16 12 36 0.1258
r17 11 12 16.3327
r18 9 11 4.59
r19 7 37 0.1632
r20 6 7 8.16635
r21 4 6 1.53
.ends

.subckt PM_FINAL_ALL_V1%XI29/XI55/NET14 4 9 30 34
c0 36 0 0.0376597f
c1 34 0 0.165426f
c2 30 0 0.110349f
c3 26 0 0.166016f
c4 23 0 0.0791858f
c5 12 0 0.506744f
r6 32 36 7.73958
r7 32 34 55.25
r8 28 36 7.73958
r9 28 30 31.5
r10 26 43 0.132702
r11 25 26 13.2552
r12 23 36 1.29764
r13 23 25 5.24681
r14 21 43 0.0141465
r15 20 43 0.0141465
r16 12 20 0.1258
r17 11 12 16.3327
r18 9 11 4.59
r19 7 21 0.1632
r20 6 7 8.16635
r21 4 6 1.53
.ends

.subckt PM_FINAL_ALL_V1%XI29/NET0118 4 9 26 30
c0 32 0 0.0376597f
c1 30 0 0.165426f
c2 26 0 0.110349f
c3 22 0 0.16654f
c4 19 0 0.0791858f
c5 12 0 0.507764f
r6 37 43 0.0141465
r7 36 43 0.0141465
r8 28 32 7.73958
r9 28 30 55.25
r10 24 32 7.73958
r11 24 26 31.5
r12 22 43 0.132702
r13 21 22 13.2552
r14 19 32 1.29764
r15 19 21 5.24681
r16 12 36 0.1258
r17 11 12 16.3327
r18 9 11 4.59
r19 7 37 0.1632
r20 6 7 8.16635
r21 4 6 1.53
.ends

.subckt PM_FINAL_ALL_V1%XI29/XI57/NET14 4 9 30 34
c0 36 0 0.0397663f
c1 34 0 0.172386f
c2 30 0 0.113334f
c3 26 0 0.169639f
c4 23 0 0.0791858f
c5 12 0 0.514108f
r6 32 36 7.73958
r7 32 34 55.25
r8 28 36 7.73958
r9 28 30 31.5
r10 26 43 0.132702
r11 25 26 13.2552
r12 23 36 1.29764
r13 23 25 5.24681
r14 21 43 0.0141465
r15 20 43 0.0141465
r16 12 20 0.1258
r17 11 12 16.3327
r18 9 11 4.59
r19 7 21 0.1632
r20 6 7 8.16635
r21 4 6 1.53
.ends

.subckt PM_FINAL_ALL_V1%XI29/NET096 4 9 26 30
c0 32 0 0.0376597f
c1 30 0 0.165426f
c2 26 0 0.110349f
c3 22 0 0.166122f
c4 19 0 0.0791858f
c5 12 0 0.506696f
r6 37 43 0.0141465
r7 36 43 0.0141465
r8 28 32 7.73958
r9 28 30 55.25
r10 24 32 7.73958
r11 24 26 31.5
r12 22 43 0.132702
r13 21 22 13.2552
r14 19 32 1.29764
r15 19 21 5.24681
r16 12 36 0.1258
r17 11 12 16.3327
r18 9 11 4.59
r19 7 37 0.1632
r20 6 7 8.16635
r21 4 6 1.53
.ends

.subckt PM_FINAL_ALL_V1%XI29/XI75/NET14 4 9 30 34
c0 36 0 0.0376597f
c1 34 0 0.165426f
c2 30 0 0.110349f
c3 26 0 0.166122f
c4 23 0 0.0791858f
c5 12 0 0.506696f
r6 32 36 7.73958
r7 32 34 55.25
r8 28 36 7.73958
r9 28 30 31.5
r10 26 43 0.132702
r11 25 26 13.2552
r12 23 36 1.29764
r13 23 25 5.24681
r14 21 43 0.0141465
r15 20 43 0.0141465
r16 12 20 0.1258
r17 11 12 16.3327
r18 9 11 4.59
r19 7 21 0.1632
r20 6 7 8.16635
r21 4 6 1.53
.ends

.subckt PM_FINAL_ALL_V1%XI29/NET0170 4 9 26 30
c0 32 0 0.0376597f
c1 30 0 0.165426f
c2 26 0 0.110349f
c3 22 0 0.166122f
c4 19 0 0.0791858f
c5 12 0 0.506696f
r6 37 43 0.0141465
r7 36 43 0.0141465
r8 28 32 7.73958
r9 28 30 55.25
r10 24 32 7.73958
r11 24 26 31.5
r12 22 43 0.132702
r13 21 22 13.2552
r14 19 32 1.29764
r15 19 21 5.24681
r16 12 36 0.1258
r17 11 12 16.3327
r18 9 11 4.59
r19 7 37 0.1632
r20 6 7 8.16635
r21 4 6 1.53
.ends

.subckt PM_FINAL_ALL_V1%XI29/XI61/NET14 4 9 30 34
c0 36 0 0.0376597f
c1 34 0 0.165426f
c2 30 0 0.110349f
c3 26 0 0.166122f
c4 23 0 0.0791858f
c5 12 0 0.506696f
r6 32 36 7.73958
r7 32 34 55.25
r8 28 36 7.73958
r9 28 30 31.5
r10 26 43 0.132702
r11 25 26 13.2552
r12 23 36 1.29764
r13 23 25 5.24681
r14 21 43 0.0141465
r15 20 43 0.0141465
r16 12 20 0.1258
r17 11 12 16.3327
r18 9 11 4.59
r19 7 21 0.1632
r20 6 7 8.16635
r21 4 6 1.53
.ends

.subckt PM_FINAL_ALL_V1%XI29/NET0102 4 9 26 30
c0 32 0 0.0376597f
c1 30 0 0.165426f
c2 26 0 0.110349f
c3 22 0 0.166017f
c4 19 0 0.0791858f
c5 12 0 0.509815f
r6 37 48 0.0141465
r7 36 48 0.0141465
r8 28 32 7.73958
r9 28 30 55.25
r10 24 32 7.73958
r11 24 26 31.5
r12 22 48 0.132702
r13 21 22 13.2552
r14 19 32 1.29764
r15 19 21 5.24681
r16 12 36 0.1258
r17 11 12 16.3327
r18 9 11 4.59
r19 7 37 0.1632
r20 6 7 8.16635
r21 4 6 1.53
.ends

.subckt PM_FINAL_ALL_V1%XI29/XI52/NET14 4 9 34 38
c0 40 0 0.0376597f
c1 38 0 0.165426f
c2 34 0 0.110349f
c3 30 0 0.166218f
c4 27 0 0.0792762f
c5 12 0 0.506744f
r6 36 40 7.73958
r7 36 38 55.25
r8 32 40 7.73958
r9 32 34 31.5
r10 30 48 0.132702
r11 29 30 13.2552
r12 27 40 1.29764
r13 27 29 5.24681
r14 21 48 0.0141465
r15 20 48 0.0141465
r16 12 20 0.1258
r17 11 12 16.3327
r18 9 11 4.59
r19 7 21 0.1632
r20 6 7 8.16635
r21 4 6 1.53
.ends

.subckt PM_FINAL_ALL_V1%XI29/NET0154 4 9 26 30
c0 32 0 0.0376597f
c1 30 0 0.165426f
c2 26 0 0.110349f
c3 22 0 0.166016f
c4 19 0 0.0791858f
c5 12 0 0.506744f
r6 37 48 0.0141465
r7 36 48 0.0141465
r8 28 32 7.73958
r9 28 30 55.25
r10 24 32 7.73958
r11 24 26 31.5
r12 22 48 0.132702
r13 21 22 13.2552
r14 19 32 1.29764
r15 19 21 5.24681
r16 12 36 0.1258
r17 11 12 16.3327
r18 9 11 4.59
r19 7 37 0.1632
r20 6 7 8.16635
r21 4 6 1.53
.ends

.subckt PM_FINAL_ALL_V1%XI29/XI39/NET14 4 9 26 30
c0 32 0 0.0376597f
c1 30 0 0.182444f
c2 26 0 0.119289f
c3 22 0 0.169982f
c4 19 0 0.0832745f
c5 12 0 0.540987f
r6 37 48 0.0141465
r7 36 48 0.0141465
r8 28 32 7.73958
r9 28 30 55.25
r10 24 32 7.73958
r11 24 26 31.5
r12 22 48 0.132702
r13 21 22 13.2552
r14 19 32 1.29764
r15 19 21 5.24681
r16 12 36 0.1258
r17 11 12 16.3327
r18 9 11 4.59
r19 7 37 0.1632
r20 6 7 8.16635
r21 4 6 1.53
.ends

.subckt PM_FINAL_ALL_V1%XI29/NET105 4 9 34 38
c0 40 0 0.0376597f
c1 38 0 0.182444f
c2 34 0 0.119289f
c3 30 0 0.168854f
c4 27 0 0.0846324f
c5 12 0 0.542929f
r6 36 40 7.73958
r7 36 38 55.25
r8 32 40 7.73958
r9 32 34 31.5
r10 30 48 0.132702
r11 29 30 13.2552
r12 27 40 1.29764
r13 27 29 5.24681
r14 21 48 0.0141465
r15 20 48 0.0141465
r16 12 20 0.1258
r17 11 12 16.3327
r18 9 11 4.59
r19 7 21 0.1632
r20 6 7 8.16635
r21 4 6 1.53
.ends

.subckt PM_FINAL_ALL_V1%XI29/XI46/NET14 4 9 26 30
c0 32 0 0.0376597f
c1 30 0 0.165426f
c2 26 0 0.110349f
c3 22 0 0.16596f
c4 19 0 0.0791858f
c5 12 0 0.507182f
r6 37 48 0.0141465
r7 36 48 0.0141465
r8 28 32 7.73958
r9 28 30 55.25
r10 24 32 7.73958
r11 24 26 31.5
r12 22 48 0.132702
r13 21 22 13.2552
r14 19 32 1.29764
r15 19 21 5.24681
r16 12 36 0.1258
r17 11 12 16.3327
r18 9 11 4.59
r19 7 37 0.1632
r20 6 7 8.16635
r21 4 6 1.53
.ends

.subckt PM_FINAL_ALL_V1%XI29/NET0158 4 9 26 30
c0 32 0 0.0376597f
c1 30 0 0.165426f
c2 26 0 0.110349f
c3 22 0 0.166122f
c4 19 0 0.0791858f
c5 12 0 0.506696f
r6 37 48 0.0141465
r7 36 48 0.0141465
r8 28 32 7.73958
r9 28 30 55.25
r10 24 32 7.73958
r11 24 26 31.5
r12 22 48 0.132702
r13 21 22 13.2552
r14 19 32 1.29764
r15 19 21 5.24681
r16 12 36 0.1258
r17 11 12 16.3327
r18 9 11 4.59
r19 7 37 0.1632
r20 6 7 8.16635
r21 4 6 1.53
.ends

.subckt PM_FINAL_ALL_V1%XI29/XI77/NET14 4 9 34 38
c0 40 0 0.0376597f
c1 38 0 0.165426f
c2 34 0 0.110349f
c3 30 0 0.166122f
c4 27 0 0.0791858f
c5 12 0 0.506696f
r6 36 40 7.73958
r7 36 38 55.25
r8 32 40 7.73958
r9 32 34 31.5
r10 30 48 0.132702
r11 29 30 13.2552
r12 27 40 1.29764
r13 27 29 5.24681
r14 21 48 0.0141465
r15 20 48 0.0141465
r16 12 20 0.1258
r17 11 12 16.3327
r18 9 11 4.59
r19 7 21 0.1632
r20 6 7 8.16635
r21 4 6 1.53
.ends

.subckt PM_FINAL_ALL_V1%XI29/NET097 4 9 26 30
c0 32 0 0.0376597f
c1 30 0 0.165426f
c2 26 0 0.110349f
c3 22 0 0.166122f
c4 19 0 0.0791858f
c5 12 0 0.506696f
r6 37 48 0.0141465
r7 36 48 0.0141465
r8 28 32 7.73958
r9 28 30 55.25
r10 24 32 7.73958
r11 24 26 31.5
r12 22 48 0.132702
r13 21 22 13.2552
r14 19 32 1.29764
r15 19 21 5.24681
r16 12 36 0.1258
r17 11 12 16.3327
r18 9 11 4.59
r19 7 37 0.1632