* File: final_combine_stage2.pex.spi
* Created: Sun Jan 16 18:29:59 2022
* Program "Calibre xRC"
* Version "v2021.1_33.19"
* 
.include "final_combine_stage2.pex.spi.pex"
.subckt Final  YOUT<0> YOUT<1> YOUT<2> YOUT<3> YOUT<4> YOUT<5> YOUT<6> YOUT<7>
+ DOUT<0> SO<0> DOUT<1> SO<1> VDD CLK WLEN SAEN BL<0> BL<1> DL<0> BL<2> BL<3>
+ BL<4> BL<5> BL<6> BL<7> BL<8> DL<1> BL<9> BL<10> BL<11> BL<12> BL<13> BL<14>
+ BL<15> VSS X_SEL<5> X_SEL<2> X_SEL<4> X_SEL<1> X_SEL<3> X_SEL<0> WL<63> WL<62>
+ WL<61> WL<60> WL<59> WL<58> WL<57> WL<56> WL<55> WL<54> WL<53> WL<52> WL<51>
+ WL<50> WL<49> WL<48> WL<47> WL<46> WL<45> WL<44> WL<43> WL<42> WL<41> WL<40>
+ WL<39> WL<38> WL<37> WL<36> WL<35> WL<34> WL<33> WL<32> WL<31> WL<30> WL<29>
+ WL<28> WL<27> WL<26> WL<25> WL<24> WL<23> WL<22> WL<21> WL<20> WL<19> WL<18>
+ WL<17> WL<16> WL<15> WL<14> WL<13> WL<12> WL<11> WL<10> WL<9> WL<8> WL<7>
+ WL<6> WL<5> WL<4> WL<3> WL<2> WL<1> WL<0> Y_SEL<0> Y_SEL<2> Y_SEL<1> VREF A<2>
+ A<1> A<0> A<6> A<7> A<8> A<3> A<4> A<5>
* 
* A<5>	A<5>
* A<4>	A<4>
* A<3>	A<3>
* A<8>	A<8>
* A<7>	A<7>
* A<6>	A<6>
* A<0>	A<0>
* A<1>	A<1>
* A<2>	A<2>
* VREF	VREF
* Y_SEL<1>	Y_SEL<1>
* Y_SEL<2>	Y_SEL<2>
* Y_SEL<0>	Y_SEL<0>
* WL<0>	WL<0>
* WL<1>	WL<1>
* WL<2>	WL<2>
* WL<3>	WL<3>
* WL<4>	WL<4>
* WL<5>	WL<5>
* WL<6>	WL<6>
* WL<7>	WL<7>
* WL<8>	WL<8>
* WL<9>	WL<9>
* WL<10>	WL<10>
* WL<11>	WL<11>
* WL<12>	WL<12>
* WL<13>	WL<13>
* WL<14>	WL<14>
* WL<15>	WL<15>
* WL<16>	WL<16>
* WL<17>	WL<17>
* WL<18>	WL<18>
* WL<19>	WL<19>
* WL<20>	WL<20>
* WL<21>	WL<21>
* WL<22>	WL<22>
* WL<23>	WL<23>
* WL<24>	WL<24>
* WL<25>	WL<25>
* WL<26>	WL<26>
* WL<27>	WL<27>
* WL<28>	WL<28>
* WL<29>	WL<29>
* WL<30>	WL<30>
* WL<31>	WL<31>
* WL<32>	WL<32>
* WL<33>	WL<33>
* WL<34>	WL<34>
* WL<35>	WL<35>
* WL<36>	WL<36>
* WL<37>	WL<37>
* WL<38>	WL<38>
* WL<39>	WL<39>
* WL<40>	WL<40>
* WL<41>	WL<41>
* WL<42>	WL<42>
* WL<43>	WL<43>
* WL<44>	WL<44>
* WL<45>	WL<45>
* WL<46>	WL<46>
* WL<47>	WL<47>
* WL<48>	WL<48>
* WL<49>	WL<49>
* WL<50>	WL<50>
* WL<51>	WL<51>
* WL<52>	WL<52>
* WL<53>	WL<53>
* WL<54>	WL<54>
* WL<55>	WL<55>
* WL<56>	WL<56>
* WL<57>	WL<57>
* WL<58>	WL<58>
* WL<59>	WL<59>
* WL<60>	WL<60>
* WL<61>	WL<61>
* WL<62>	WL<62>
* WL<63>	WL<63>
* X_SEL<0>	X_SEL<0>
* X_SEL<3>	X_SEL<3>
* X_SEL<1>	X_SEL<1>
* X_SEL<4>	X_SEL<4>
* X_SEL<2>	X_SEL<2>
* X_SEL<5>	X_SEL<5>
* VSS	VSS
* BL<15>	BL<15>
* BL<14>	BL<14>
* BL<13>	BL<13>
* BL<12>	BL<12>
* BL<11>	BL<11>
* BL<10>	BL<10>
* BL<9>	BL<9>
* DL<1>	DL<1>
* BL<8>	BL<8>
* BL<7>	BL<7>
* BL<6>	BL<6>
* BL<5>	BL<5>
* BL<4>	BL<4>
* BL<3>	BL<3>
* BL<2>	BL<2>
* DL<0>	DL<0>
* BL<1>	BL<1>
* BL<0>	BL<0>
* SAEN	SAEN
* WL_EN	WL_EN
* CLK	CLK
* VDD	VDD
* SO<1>	SO<1>
* DOUT<1>	DOUT<1>
* SO<0>	SO<0>
* DOUT<0>	DOUT<0>
* YOUT<7>	YOUT<7>
* YOUT<6>	YOUT<6>
* YOUT<5>	YOUT<5>
* YOUT<4>	YOUT<4>
* YOUT<3>	YOUT<3>
* YOUT<2>	YOUT<2>
* YOUT<1>	YOUT<1>
* YOUT<0>	YOUT<0>
mXI9/XI0/XI10/MM10 N_XI9/XI0/NET0116_XI9/XI0/XI10/MM10_d
+ N_X_SEL<3>_XI9/XI0/XI10/MM10_g N_VSS_XI9/XI0/XI10/MM10_s N_VSS_XI27/MM16_b
+ N_18 L=1.8e-07 W=5e-07 AD=2.55e-13 AS=2.55e-13 PD=1.52e-06 PS=1.52e-06
mXI9/XI0/XI11/MM10 N_XI9/XI0/NET0105_XI9/XI0/XI11/MM10_d
+ N_X_SEL<4>_XI9/XI0/XI11/MM10_g N_VSS_XI9/XI0/XI11/MM10_s N_VSS_XI27/MM16_b
+ N_18 L=1.8e-07 W=5e-07 AD=2.55e-13 AS=2.55e-13 PD=1.52e-06 PS=1.52e-06
mXI9/XI0/XI8/MM10 N_XI9/XI0/NET0158_XI9/XI0/XI8/MM10_d
+ N_X_SEL<5>_XI9/XI0/XI8/MM10_g N_VSS_XI9/XI0/XI8/MM10_s N_VSS_XI27/MM16_b N_18
+ L=1.8e-07 W=5e-07 AD=2.55e-13 AS=2.55e-13 PD=1.52e-06 PS=1.52e-06
mXI9/XI1/XI10/MM10 N_XI9/XI1/NET0116_XI9/XI1/XI10/MM10_d
+ N_X_SEL<0>_XI9/XI1/XI10/MM10_g N_VSS_XI9/XI1/XI10/MM10_s N_VSS_XI27/MM16_b
+ N_18 L=1.8e-07 W=5e-07 AD=2.55e-13 AS=2.55e-13 PD=1.52e-06 PS=1.52e-06
mXI9/XI1/XI11/MM10 N_XI9/XI1/NET0105_XI9/XI1/XI11/MM10_d
+ N_X_SEL<1>_XI9/XI1/XI11/MM10_g N_VSS_XI9/XI1/XI11/MM10_s N_VSS_XI27/MM16_b
+ N_18 L=1.8e-07 W=5e-07 AD=2.55e-13 AS=2.55e-13 PD=1.52e-06 PS=1.52e-06
mXI9/XI1/XI8/MM10 N_XI9/XI1/NET0158_XI9/XI1/XI8/MM10_d
+ N_X_SEL<2>_XI9/XI1/XI8/MM10_g N_VSS_XI9/XI1/XI8/MM10_s N_VSS_XI27/MM16_b N_18
+ L=1.8e-07 W=5e-07 AD=2.55e-13 AS=2.55e-13 PD=1.52e-06 PS=1.52e-06
mXI9/XI0/XI7/MM11 N_XI9/XI0/XI7/NET030_XI9/XI0/XI7/MM11_d
+ N_WLEN_XI9/XI0/XI7/MM11_g N_VSS_XI9/XI0/XI7/MM11_s N_VSS_XI27/MM16_b N_18
+ L=1.8e-07 W=5e-07 AD=2.45e-13 AS=2.45e-13 PD=1.48e-06 PS=1.48e-06
mXI9/XI0/XI7/MM6 N_XI9/XI0/XI7/NET40_XI9/XI0/XI7/MM6_d
+ N_X_SEL<3>_XI9/XI0/XI7/MM6_g N_XI9/XI0/XI7/NET030_XI9/XI0/XI7/MM6_s
+ N_VSS_XI27/MM16_b N_18 L=1.8e-07 W=5e-07 AD=2.45e-13 AS=2.45e-13 PD=1.48e-06
+ PS=1.48e-06
mXI9/XI0/XI7/MM5 N_XI9/XI0/XI7/NET44_XI9/XI0/XI7/MM5_d
+ N_X_SEL<4>_XI9/XI0/XI7/MM5_g N_XI9/XI0/XI7/NET40_XI9/XI0/XI7/MM5_s
+ N_VSS_XI27/MM16_b N_18 L=1.8e-07 W=5e-07 AD=2.45e-13 AS=2.45e-13 PD=1.48e-06
+ PS=1.48e-06
mXI9/XI0/XI7/MM4 N_XI9/NET17_XI9/XI0/XI7/MM4_d N_X_SEL<5>_XI9/XI0/XI7/MM4_g
+ N_XI9/XI0/XI7/NET44_XI9/XI0/XI7/MM4_s N_VSS_XI27/MM16_b N_18 L=1.8e-07 W=5e-07
+ AD=2.45e-13 AS=2.45e-13 PD=1.48e-06 PS=1.48e-06
mXI9/XI0/XI6/MM11 N_XI9/XI0/XI6/NET030_XI9/XI0/XI6/MM11_d
+ N_WLEN_XI9/XI0/XI6/MM11_g N_VSS_XI9/XI0/XI6/MM11_s N_VSS_XI27/MM16_b N_18
+ L=1.8e-07 W=5e-07 AD=2.45e-13 AS=2.45e-13 PD=1.48e-06 PS=1.48e-06
mXI9/XI0/XI6/MM6 N_XI9/XI0/XI6/NET40_XI9/XI0/XI6/MM6_d
+ N_XI9/XI0/NET0116_XI9/XI0/XI6/MM6_g N_XI9/XI0/XI6/NET030_XI9/XI0/XI6/MM6_s
+ N_VSS_XI27/MM16_b N_18 L=1.8e-07 W=5e-07 AD=2.45e-13 AS=2.45e-13 PD=1.48e-06
+ PS=1.48e-06
mXI9/XI0/XI6/MM5 N_XI9/XI0/XI6/NET44_XI9/XI0/XI6/MM5_d
+ N_X_SEL<4>_XI9/XI0/XI6/MM5_g N_XI9/XI0/XI6/NET40_XI9/XI0/XI6/MM5_s
+ N_VSS_XI27/MM16_b N_18 L=1.8e-07 W=5e-07 AD=2.45e-13 AS=2.45e-13 PD=1.48e-06
+ PS=1.48e-06
mXI9/XI0/XI6/MM4 N_XI9/NET18_XI9/XI0/XI6/MM4_d N_X_SEL<5>_XI9/XI0/XI6/MM4_g
+ N_XI9/XI0/XI6/NET44_XI9/XI0/XI6/MM4_s N_VSS_XI27/MM16_b N_18 L=1.8e-07 W=5e-07
+ AD=2.45e-13 AS=2.45e-13 PD=1.48e-06 PS=1.48e-06
mXI9/XI0/XI5/MM11 N_XI9/XI0/XI5/NET030_XI9/XI0/XI5/MM11_d
+ N_WLEN_XI9/XI0/XI5/MM11_g N_VSS_XI9/XI0/XI5/MM11_s N_VSS_XI27/MM16_b N_18
+ L=1.8e-07 W=5e-07 AD=2.45e-13 AS=2.45e-13 PD=1.48e-06 PS=1.48e-06
mXI9/XI0/XI5/MM6 N_XI9/XI0/XI5/NET40_XI9/XI0/XI5/MM6_d
+ N_X_SEL<3>_XI9/XI0/XI5/MM6_g N_XI9/XI0/XI5/NET030_XI9/XI0/XI5/MM6_s
+ N_VSS_XI27/MM16_b N_18 L=1.8e-07 W=5e-07 AD=2.45e-13 AS=2.45e-13 PD=1.48e-06
+ PS=1.48e-06
mXI9/XI0/XI5/MM5 N_XI9/XI0/XI5/NET44_XI9/XI0/XI5/MM5_d
+ N_XI9/XI0/NET0105_XI9/XI0/XI5/MM5_g N_XI9/XI0/XI5/NET40_XI9/XI0/XI5/MM5_s
+ N_VSS_XI27/MM16_b N_18 L=1.8e-07 W=5e-07 AD=2.45e-13 AS=2.45e-13 PD=1.48e-06
+ PS=1.48e-06
mXI9/XI0/XI5/MM4 N_XI9/NET19_XI9/XI0/XI5/MM4_d N_X_SEL<5>_XI9/XI0/XI5/MM4_g
+ N_XI9/XI0/XI5/NET44_XI9/XI0/XI5/MM4_s N_VSS_XI27/MM16_b N_18 L=1.8e-07 W=5e-07
+ AD=2.45e-13 AS=2.45e-13 PD=1.48e-06 PS=1.48e-06
mXI9/XI0/XI4/MM11 N_XI9/XI0/XI4/NET030_XI9/XI0/XI4/MM11_d
+ N_WLEN_XI9/XI0/XI4/MM11_g N_VSS_XI9/XI0/XI4/MM11_s N_VSS_XI27/MM16_b N_18
+ L=1.8e-07 W=5e-07 AD=2.45e-13 AS=2.45e-13 PD=1.48e-06 PS=1.48e-06
mXI9/XI0/XI4/MM6 N_XI9/XI0/XI4/NET40_XI9/XI0/XI4/MM6_d
+ N_XI9/XI0/NET0116_XI9/XI0/XI4/MM6_g N_XI9/XI0/XI4/NET030_XI9/XI0/XI4/MM6_s
+ N_VSS_XI27/MM16_b N_18 L=1.8e-07 W=5e-07 AD=2.45e-13 AS=2.45e-13 PD=1.48e-06
+ PS=1.48e-06
mXI9/XI0/XI4/MM5 N_XI9/XI0/XI4/NET44_XI9/XI0/XI4/MM5_d
+ N_XI9/XI0/NET0105_XI9/XI0/XI4/MM5_g N_XI9/XI0/XI4/NET40_XI9/XI0/XI4/MM5_s
+ N_VSS_XI27/MM16_b N_18 L=1.8e-07 W=5e-07 AD=2.45e-13 AS=2.45e-13 PD=1.48e-06
+ PS=1.48e-06
mXI9/XI0/XI4/MM4 N_XI9/NET20_XI9/XI0/XI4/MM4_d N_X_SEL<5>_XI9/XI0/XI4/MM4_g
+ N_XI9/XI0/XI4/NET44_XI9/XI0/XI4/MM4_s N_VSS_XI27/MM16_b N_18 L=1.8e-07 W=5e-07
+ AD=2.45e-13 AS=2.45e-13 PD=1.48e-06 PS=1.48e-06
mXI9/XI0/XI3/MM11 N_XI9/XI0/XI3/NET030_XI9/XI0/XI3/MM11_d
+ N_WLEN_XI9/XI0/XI3/MM11_g N_VSS_XI9/XI0/XI3/MM11_s N_VSS_XI27/MM16_b N_18
+ L=1.8e-07 W=5e-07 AD=2.45e-13 AS=2.45e-13 PD=1.48e-06 PS=1.48e-06
mXI9/XI0/XI3/MM6 N_XI9/XI0/XI3/NET40_XI9/XI0/XI3/MM6_d
+ N_X_SEL<3>_XI9/XI0/XI3/MM6_g N_XI9/XI0/XI3/NET030_XI9/XI0/XI3/MM6_s
+ N_VSS_XI27/MM16_b N_18 L=1.8e-07 W=5e-07 AD=2.45e-13 AS=2.45e-13 PD=1.48e-06
+ PS=1.48e-06
mXI9/XI0/XI3/MM5 N_XI9/XI0/XI3/NET44_XI9/XI0/XI3/MM5_d
+ N_X_SEL<4>_XI9/XI0/XI3/MM5_g N_XI9/XI0/XI3/NET40_XI9/XI0/XI3/MM5_s
+ N_VSS_XI27/MM16_b N_18 L=1.8e-07 W=5e-07 AD=2.45e-13 AS=2.45e-13 PD=1.48e-06
+ PS=1.48e-06
mXI9/XI0/XI3/MM4 N_XI9/NET21_XI9/XI0/XI3/MM4_d
+ N_XI9/XI0/NET0158_XI9/XI0/XI3/MM4_g N_XI9/XI0/XI3/NET44_XI9/XI0/XI3/MM4_s
+ N_VSS_XI27/MM16_b N_18 L=1.8e-07 W=5e-07 AD=2.45e-13 AS=2.45e-13 PD=1.48e-06
+ PS=1.48e-06
mXI9/XI0/XI2/MM11 N_XI9/XI0/XI2/NET030_XI9/XI0/XI2/MM11_d
+ N_WLEN_XI9/XI0/XI2/MM11_g N_VSS_XI9/XI0/XI2/MM11_s N_VSS_XI27/MM16_b N_18
+ L=1.8e-07 W=5e-07 AD=2.45e-13 AS=2.45e-13 PD=1.48e-06 PS=1.48e-06
mXI9/XI0/XI2/MM6 N_XI9/XI0/XI2/NET40_XI9/XI0/XI2/MM6_d
+ N_XI9/XI0/NET0116_XI9/XI0/XI2/MM6_g N_XI9/XI0/XI2/NET030_XI9/XI0/XI2/MM6_s
+ N_VSS_XI27/MM16_b N_18 L=1.8e-07 W=5e-07 AD=2.45e-13 AS=2.45e-13 PD=1.48e-06
+ PS=1.48e-06
mXI9/XI0/XI2/MM5 N_XI9/XI0/XI2/NET44_XI9/XI0/XI2/MM5_d
+ N_X_SEL<4>_XI9/XI0/XI2/MM5_g N_XI9/XI0/XI2/NET40_XI9/XI0/XI2/MM5_s
+ N_VSS_XI27/MM16_b N_18 L=1.8e-07 W=5e-07 AD=2.45e-13 AS=2.45e-13 PD=1.48e-06
+ PS=1.48e-06
mXI9/XI0/XI2/MM4 N_XI9/NET22_XI9/XI0/XI2/MM4_d
+ N_XI9/XI0/NET0158_XI9/XI0/XI2/MM4_g N_XI9/XI0/XI2/NET44_XI9/XI0/XI2/MM4_s
+ N_VSS_XI27/MM16_b N_18 L=1.8e-07 W=5e-07 AD=2.45e-13 AS=2.45e-13 PD=1.48e-06
+ PS=1.48e-06
mXI9/XI0/XI1/MM11 N_XI9/XI0/XI1/NET030_XI9/XI0/XI1/MM11_d
+ N_WLEN_XI9/XI0/XI1/MM11_g N_VSS_XI9/XI0/XI1/MM11_s N_VSS_XI27/MM16_b N_18
+ L=1.8e-07 W=5e-07 AD=2.45e-13 AS=2.45e-13 PD=1.48e-06 PS=1.48e-06
mXI9/XI0/XI1/MM6 N_XI9/XI0/XI1/NET40_XI9/XI0/XI1/MM6_d
+ N_X_SEL<3>_XI9/XI0/XI1/MM6_g N_XI9/XI0/XI1/NET030_XI9/XI0/XI1/MM6_s
+ N_VSS_XI27/MM16_b N_18 L=1.8e-07 W=5e-07 AD=2.45e-13 AS=2.45e-13 PD=1.48e-06
+ PS=1.48e-06
mXI9/XI0/XI1/MM5 N_XI9/XI0/XI1/NET44_XI9/XI0/XI1/MM5_d
+ N_XI9/XI0/NET0105_XI9/XI0/XI1/MM5_g N_XI9/XI0/XI1/NET40_XI9/XI0/XI1/MM5_s
+ N_VSS_XI27/MM16_b N_18 L=1.8e-07 W=5e-07 AD=2.45e-13 AS=2.45e-13 PD=1.48e-06
+ PS=1.48e-06
mXI9/XI0/XI1/MM4 N_XI9/NET23_XI9/XI0/XI1/MM4_d
+ N_XI9/XI0/NET0158_XI9/XI0/XI1/MM4_g N_XI9/XI0/XI1/NET44_XI9/XI0/XI1/MM4_s
+ N_VSS_XI27/MM16_b N_18 L=1.8e-07 W=5e-07 AD=2.45e-13 AS=2.45e-13 PD=1.48e-06
+ PS=1.48e-06
mXI9/XI0/XI0/MM11 N_XI9/XI0/XI0/NET030_XI9/XI0/XI0/MM11_d
+ N_WLEN_XI9/XI0/XI0/MM11_g N_VSS_XI9/XI0/XI0/MM11_s N_VSS_XI27/MM16_b N_18
+ L=1.8e-07 W=5e-07 AD=2.45e-13 AS=2.45e-13 PD=1.48e-06 PS=1.48e-06
mXI9/XI0/XI0/MM6 N_XI9/XI0/XI0/NET40_XI9/XI0/XI0/MM6_d
+ N_XI9/XI0/NET0116_XI9/XI0/XI0/MM6_g N_XI9/XI0/XI0/NET030_XI9/XI0/XI0/MM6_s
+ N_VSS_XI27/MM16_b N_18 L=1.8e-07 W=5e-07 AD=2.45e-13 AS=2.45e-13 PD=1.48e-06
+ PS=1.48e-06
mXI9/XI0/XI0/MM5 N_XI9/XI0/XI0/NET44_XI9/XI0/XI0/MM5_d
+ N_XI9/XI0/NET0105_XI9/XI0/XI0/MM5_g N_XI9/XI0/XI0/NET40_XI9/XI0/XI0/MM5_s
+ N_VSS_XI27/MM16_b N_18 L=1.8e-07 W=5e-07 AD=2.45e-13 AS=2.45e-13 PD=1.48e-06
+ PS=1.48e-06
mXI9/XI0/XI0/MM4 N_XI9/NET24_XI9/XI0/XI0/MM4_d
+ N_XI9/XI0/NET0158_XI9/XI0/XI0/MM4_g N_XI9/XI0/XI0/NET44_XI9/XI0/XI0/MM4_s
+ N_VSS_XI27/MM16_b N_18 L=1.8e-07 W=5e-07 AD=2.45e-13 AS=2.45e-13 PD=1.48e-06
+ PS=1.48e-06
mXI9/XI1/XI7/MM11 N_XI9/XI1/XI7/NET030_XI9/XI1/XI7/MM11_d
+ N_WLEN_XI9/XI1/XI7/MM11_g N_VSS_XI9/XI1/XI7/MM11_s N_VSS_XI27/MM16_b N_18
+ L=1.8e-07 W=5e-07 AD=2.45e-13 AS=2.45e-13 PD=1.48e-06 PS=1.48e-06
mXI9/XI1/XI7/MM6 N_XI9/XI1/XI7/NET40_XI9/XI1/XI7/MM6_d
+ N_X_SEL<0>_XI9/XI1/XI7/MM6_g N_XI9/XI1/XI7/NET030_XI9/XI1/XI7/MM6_s
+ N_VSS_XI27/MM16_b N_18 L=1.8e-07 W=5e-07 AD=2.45e-13 AS=2.45e-13 PD=1.48e-06
+ PS=1.48e-06
mXI9/XI1/XI7/MM5 N_XI9/XI1/XI7/NET44_XI9/XI1/XI7/MM5_d
+ N_X_SEL<1>_XI9/XI1/XI7/MM5_g N_XI9/XI1/XI7/NET40_XI9/XI1/XI7/MM5_s
+ N_VSS_XI27/MM16_b N_18 L=1.8e-07 W=5e-07 AD=2.45e-13 AS=2.45e-13 PD=1.48e-06
+ PS=1.48e-06
mXI9/XI1/XI7/MM4 N_XI9/NET4_XI9/XI1/XI7/MM4_d N_X_SEL<2>_XI9/XI1/XI7/MM4_g
+ N_XI9/XI1/XI7/NET44_XI9/XI1/XI7/MM4_s N_VSS_XI27/MM16_b N_18 L=1.8e-07 W=5e-07
+ AD=2.45e-13 AS=2.45e-13 PD=1.48e-06 PS=1.48e-06
mXI9/XI1/XI6/MM11 N_XI9/XI1/XI6/NET030_XI9/XI1/XI6/MM11_d
+ N_WLEN_XI9/XI1/XI6/MM11_g N_VSS_XI9/XI1/XI6/MM11_s N_VSS_XI27/MM16_b N_18
+ L=1.8e-07 W=5e-07 AD=2.45e-13 AS=2.45e-13 PD=1.48e-06 PS=1.48e-06
mXI9/XI1/XI6/MM6 N_XI9/XI1/XI6/NET40_XI9/XI1/XI6/MM6_d
+ N_XI9/XI1/NET0116_XI9/XI1/XI6/MM6_g N_XI9/XI1/XI6/NET030_XI9/XI1/XI6/MM6_s
+ N_VSS_XI27/MM16_b N_18 L=1.8e-07 W=5e-07 AD=2.45e-13 AS=2.45e-13 PD=1.48e-06
+ PS=1.48e-06
mXI9/XI1/XI6/MM5 N_XI9/XI1/XI6/NET44_XI9/XI1/XI6/MM5_d
+ N_X_SEL<1>_XI9/XI1/XI6/MM5_g N_XI9/XI1/XI6/NET40_XI9/XI1/XI6/MM5_s
+ N_VSS_XI27/MM16_b N_18 L=1.8e-07 W=5e-07 AD=2.45e-13 AS=2.45e-13 PD=1.48e-06
+ PS=1.48e-06
mXI9/XI1/XI6/MM4 N_XI9/NET5_XI9/XI1/XI6/MM4_d N_X_SEL<2>_XI9/XI1/XI6/MM4_g
+ N_XI9/XI1/XI6/NET44_XI9/XI1/XI6/MM4_s N_VSS_XI27/MM16_b N_18 L=1.8e-07 W=5e-07
+ AD=2.45e-13 AS=2.45e-13 PD=1.48e-06 PS=1.48e-06
mXI9/XI1/XI5/MM11 N_XI9/XI1/XI5/NET030_XI9/XI1/XI5/MM11_d
+ N_WLEN_XI9/XI1/XI5/MM11_g N_VSS_XI9/XI1/XI5/MM11_s N_VSS_XI27/MM16_b N_18
+ L=1.8e-07 W=5e-07 AD=2.45e-13 AS=2.45e-13 PD=1.48e-06 PS=1.48e-06
mXI9/XI1/XI5/MM6 N_XI9/XI1/XI5/NET40_XI9/XI1/XI5/MM6_d
+ N_X_SEL<0>_XI9/XI1/XI5/MM6_g N_XI9/XI1/XI5/NET030_XI9/XI1/XI5/MM6_s
+ N_VSS_XI27/MM16_b N_18 L=1.8e-07 W=5e-07 AD=2.45e-13 AS=2.45e-13 PD=1.48e-06
+ PS=1.48e-06
mXI9/XI1/XI5/MM5 N_XI9/XI1/XI5/NET44_XI9/XI1/XI5/MM5_d
+ N_XI9/XI1/NET0105_XI9/XI1/XI5/MM5_g N_XI9/XI1/XI5/NET40_XI9/XI1/XI5/MM5_s
+ N_VSS_XI27/MM16_b N_18 L=1.8e-07 W=5e-07 AD=2.45e-13 AS=2.45e-13 PD=1.48e-06
+ PS=1.48e-06
mXI9/XI1/XI5/MM4 N_XI9/NET6_XI9/XI1/XI5/MM4_d N_X_SEL<2>_XI9/XI1/XI5/MM4_g
+ N_XI9/XI1/XI5/NET44_XI9/XI1/XI5/MM4_s N_VSS_XI27/MM16_b N_18 L=1.8e-07 W=5e-07
+ AD=2.45e-13 AS=2.45e-13 PD=1.48e-06 PS=1.48e-06
mXI9/XI1/XI4/MM11 N_XI9/XI1/XI4/NET030_XI9/XI1/XI4/MM11_d
+ N_WLEN_XI9/XI1/XI4/MM11_g N_VSS_XI9/XI1/XI4/MM11_s N_VSS_XI27/MM16_b N_18
+ L=1.8e-07 W=5e-07 AD=2.45e-13 AS=2.45e-13 PD=1.48e-06 PS=1.48e-06
mXI9/XI1/XI4/MM6 N_XI9/XI1/XI4/NET40_XI9/XI1/XI4/MM6_d
+ N_XI9/XI1/NET0116_XI9/XI1/XI4/MM6_g N_XI9/XI1/XI4/NET030_XI9/XI1/XI4/MM6_s
+ N_VSS_XI27/MM16_b N_18 L=1.8e-07 W=5e-07 AD=2.45e-13 AS=2.45e-13 PD=1.48e-06
+ PS=1.48e-06
mXI9/XI1/XI4/MM5 N_XI9/XI1/XI4/NET44_XI9/XI1/XI4/MM5_d
+ N_XI9/XI1/NET0105_XI9/XI1/XI4/MM5_g N_XI9/XI1/XI4/NET40_XI9/XI1/XI4/MM5_s
+ N_VSS_XI27/MM16_b N_18 L=1.8e-07 W=5e-07 AD=2.45e-13 AS=2.45e-13 PD=1.48e-06
+ PS=1.48e-06
mXI9/XI1/XI4/MM4 N_XI9/NET7_XI9/XI1/XI4/MM4_d N_X_SEL<2>_XI9/XI1/XI4/MM4_g
+ N_XI9/XI1/XI4/NET44_XI9/XI1/XI4/MM4_s N_VSS_XI27/MM16_b N_18 L=1.8e-07 W=5e-07
+ AD=2.45e-13 AS=2.45e-13 PD=1.48e-06 PS=1.48e-06
mXI9/XI1/XI3/MM11 N_XI9/XI1/XI3/NET030_XI9/XI1/XI3/MM11_d
+ N_WLEN_XI9/XI1/XI3/MM11_g N_VSS_XI9/XI1/XI3/MM11_s N_VSS_XI27/MM16_b N_18
+ L=1.8e-07 W=5e-07 AD=2.45e-13 AS=2.45e-13 PD=1.48e-06 PS=1.48e-06
mXI9/XI1/XI3/MM6 N_XI9/XI1/XI3/NET40_XI9/XI1/XI3/MM6_d
+ N_X_SEL<0>_XI9/XI1/XI3/MM6_g N_XI9/XI1/XI3/NET030_XI9/XI1/XI3/MM6_s
+ N_VSS_XI27/MM16_b N_18 L=1.8e-07 W=5e-07 AD=2.45e-13 AS=2.45e-13 PD=1.48e-06
+ PS=1.48e-06
mXI9/XI1/XI3/MM5 N_XI9/XI1/XI3/NET44_XI9/XI1/XI3/MM5_d
+ N_X_SEL<1>_XI9/XI1/XI3/MM5_g N_XI9/XI1/XI3/NET40_XI9/XI1/XI3/MM5_s
+ N_VSS_XI27/MM16_b N_18 L=1.8e-07 W=5e-07 AD=2.45e-13 AS=2.45e-13 PD=1.48e-06
+ PS=1.48e-06
mXI9/XI1/XI3/MM4 N_XI9/NET8_XI9/XI1/XI3/MM4_d
+ N_XI9/XI1/NET0158_XI9/XI1/XI3/MM4_g N_XI9/XI1/XI3/NET44_XI9/XI1/XI3/MM4_s
+ N_VSS_XI27/MM16_b N_18 L=1.8e-07 W=5e-07 AD=2.45e-13 AS=2.45e-13 PD=1.48e-06
+ PS=1.48e-06
mXI9/XI1/XI2/MM11 N_XI9/XI1/XI2/NET030_XI9/XI1/XI2/MM11_d
+ N_WLEN_XI9/XI1/XI2/MM11_g N_VSS_XI9/XI1/XI2/MM11_s N_VSS_XI27/MM16_b N_18
+ L=1.8e-07 W=5e-07 AD=2.45e-13 AS=2.45e-13 PD=1.48e-06 PS=1.48e-06
mXI9/XI1/XI2/MM6 N_XI9/XI1/XI2/NET40_XI9/XI1/XI2/MM6_d
+ N_XI9/XI1/NET0116_XI9/XI1/XI2/MM6_g N_XI9/XI1/XI2/NET030_XI9/XI1/XI2/MM6_s
+ N_VSS_XI27/MM16_b N_18 L=1.8e-07 W=5e-07 AD=2.45e-13 AS=2.45e-13 PD=1.48e-06
+ PS=1.48e-06
mXI9/XI1/XI2/MM5 N_XI9/XI1/XI2/NET44_XI9/XI1/XI2/MM5_d
+ N_X_SEL<1>_XI9/XI1/XI2/MM5_g N_XI9/XI1/XI2/NET40_XI9/XI1/XI2/MM5_s
+ N_VSS_XI27/MM16_b N_18 L=1.8e-07 W=5e-07 AD=2.45e-13 AS=2.45e-13 PD=1.48e-06
+ PS=1.48e-06
mXI9/XI1/XI2/MM4 N_XI9/NET9_XI9/XI1/XI2/MM4_d
+ N_XI9/XI1/NET0158_XI9/XI1/XI2/MM4_g N_XI9/XI1/XI2/NET44_XI9/XI1/XI2/MM4_s
+ N_VSS_XI27/MM16_b N_18 L=1.8e-07 W=5e-07 AD=2.45e-13 AS=2.45e-13 PD=1.48e-06
+ PS=1.48e-06
mXI9/XI1/XI1/MM11 N_XI9/XI1/XI1/NET030_XI9/XI1/XI1/MM11_d
+ N_WLEN_XI9/XI1/XI1/MM11_g N_VSS_XI9/XI1/XI1/MM11_s N_VSS_XI27/MM16_b N_18
+ L=1.8e-07 W=5e-07 AD=2.45e-13 AS=2.45e-13 PD=1.48e-06 PS=1.48e-06
mXI9/XI1/XI1/MM6 N_XI9/XI1/XI1/NET40_XI9/XI1/XI1/MM6_d
+ N_X_SEL<0>_XI9/XI1/XI1/MM6_g N_XI9/XI1/XI1/NET030_XI9/XI1/XI1/MM6_s
+ N_VSS_XI27/MM16_b N_18 L=1.8e-07 W=5e-07 AD=2.45e-13 AS=2.45e-13 PD=1.48e-06
+ PS=1.48e-06
mXI9/XI1/XI1/MM5 N_XI9/XI1/XI1/NET44_XI9/XI1/XI1/MM5_d
+ N_XI9/XI1/NET0105_XI9/XI1/XI1/MM5_g N_XI9/XI1/XI1/NET40_XI9/XI1/XI1/MM5_s
+ N_VSS_XI27/MM16_b N_18 L=1.8e-07 W=5e-07 AD=2.45e-13 AS=2.45e-13 PD=1.48e-06
+ PS=1.48e-06
mXI9/XI1/XI1/MM4 N_XI9/NET10_XI9/XI1/XI1/MM4_d
+ N_XI9/XI1/NET0158_XI9/XI1/XI1/MM4_g N_XI9/XI1/XI1/NET44_XI9/XI1/XI1/MM4_s
+ N_VSS_XI27/MM16_b N_18 L=1.8e-07 W=5e-07 AD=2.45e-13 AS=2.45e-13 PD=1.48e-06
+ PS=1.48e-06
mXI9/XI1/XI0/MM11 N_XI9/XI1/XI0/NET030_XI9/XI1/XI0/MM11_d
+ N_WLEN_XI9/XI1/XI0/MM11_g N_VSS_XI9/XI1/XI0/MM11_s N_VSS_XI27/MM16_b N_18
+ L=1.8e-07 W=5e-07 AD=2.45e-13 AS=2.45e-13 PD=1.48e-06 PS=1.48e-06
mXI9/XI1/XI0/MM6 N_XI9/XI1/XI0/NET40_XI9/XI1/XI0/MM6_d
+ N_XI9/XI1/NET0116_XI9/XI1/XI0/MM6_g N_XI9/XI1/XI0/NET030_XI9/XI1/XI0/MM6_s
+ N_VSS_XI27/MM16_b N_18 L=1.8e-07 W=5e-07 AD=2.45e-13 AS=2.45e-13 PD=1.48e-06
+ PS=1.48e-06
mXI9/XI1/XI0/MM5 N_XI9/XI1/XI0/NET44_XI9/XI1/XI0/MM5_d
+ N_XI9/XI1/NET0105_XI9/XI1/XI0/MM5_g N_XI9/XI1/XI0/NET40_XI9/XI1/XI0/MM5_s
+ N_VSS_XI27/MM16_b N_18 L=1.8e-07 W=5e-07 AD=2.45e-13 AS=2.45e-13 PD=1.48e-06
+ PS=1.48e-06
mXI9/XI1/XI0/MM4 N_XI9/NET11_XI9/XI1/XI0/MM4_d
+ N_XI9/XI1/NET0158_XI9/XI1/XI0/MM4_g N_XI9/XI1/XI0/NET44_XI9/XI1/XI0/MM4_s
+ N_VSS_XI27/MM16_b N_18 L=1.8e-07 W=5e-07 AD=2.45e-13 AS=2.45e-13 PD=1.48e-06
+ PS=1.48e-06
mXI9/XI136/MM4 N_WL<63>_XI9/XI136/MM4_d N_XI9/NET4_XI9/XI136/MM4_g
+ N_VSS_XI9/XI136/MM4_s N_VSS_XI27/MM16_b N_18 L=1.8e-07 W=5e-07 AD=2.45e-13
+ AS=2.45e-13 PD=1.48e-06 PS=1.48e-06
mXI9/XI135/MM4 N_WL<62>_XI9/XI135/MM4_d N_XI9/NET5_XI9/XI135/MM4_g
+ N_VSS_XI9/XI135/MM4_s N_VSS_XI27/MM16_b N_18 L=1.8e-07 W=5e-07 AD=2.45e-13
+ AS=2.45e-13 PD=1.48e-06 PS=1.48e-06
mXI9/XI137/MM4 N_WL<61>_XI9/XI137/MM4_d N_XI9/NET6_XI9/XI137/MM4_g
+ N_VSS_XI9/XI137/MM4_s N_VSS_XI27/MM16_b N_18 L=1.8e-07 W=5e-07 AD=2.45e-13
+ AS=2.45e-13 PD=1.48e-06 PS=1.48e-06
mXI9/XI138/MM4 N_WL<60>_XI9/XI138/MM4_d N_XI9/NET7_XI9/XI138/MM4_g
+ N_VSS_XI9/XI138/MM4_s N_VSS_XI27/MM16_b N_18 L=1.8e-07 W=5e-07 AD=2.45e-13
+ AS=2.45e-13 PD=1.48e-06 PS=1.48e-06
mXI9/XI133/MM4 N_WL<59>_XI9/XI133/MM4_d N_XI9/NET8_XI9/XI133/MM4_g
+ N_VSS_XI9/XI133/MM4_s N_VSS_XI27/MM16_b N_18 L=1.8e-07 W=5e-07 AD=2.45e-13
+ AS=2.45e-13 PD=1.48e-06 PS=1.48e-06
mXI9/XI134/MM4 N_WL<58>_XI9/XI134/MM4_d N_XI9/NET9_XI9/XI134/MM4_g
+ N_VSS_XI9/XI134/MM4_s N_VSS_XI27/MM16_b N_18 L=1.8e-07 W=5e-07 AD=2.45e-13
+ AS=2.45e-13 PD=1.48e-06 PS=1.48e-06
mXI9/XI132/MM4 N_WL<57>_XI9/XI132/MM4_d N_XI9/NET10_XI9/XI132/MM4_g
+ N_VSS_XI9/XI132/MM4_s N_VSS_XI27/MM16_b N_18 L=1.8e-07 W=5e-07 AD=2.45e-13
+ AS=2.45e-13 PD=1.48e-06 PS=1.48e-06
mXI9/XI131/MM4 N_WL<56>_XI9/XI131/MM4_d N_XI9/NET11_XI9/XI131/MM4_g
+ N_VSS_XI9/XI131/MM4_s N_VSS_XI27/MM16_b N_18 L=1.8e-07 W=5e-07 AD=2.45e-13
+ AS=2.45e-13 PD=1.48e-06 PS=1.48e-06
mXI9/XI141/MM4 N_WL<55>_XI9/XI141/MM4_d N_XI9/NET4_XI9/XI141/MM4_g
+ N_VSS_XI9/XI141/MM4_s N_VSS_XI27/MM16_b N_18 L=1.8e-07 W=5e-07 AD=2.45e-13
+ AS=2.45e-13 PD=1.48e-06 PS=1.48e-06
mXI9/XI142/MM4 N_WL<54>_XI9/XI142/MM4_d N_XI9/NET5_XI9/XI142/MM4_g
+ N_VSS_XI9/XI142/MM4_s N_VSS_XI27/MM16_b N_18 L=1.8e-07 W=5e-07 AD=2.45e-13
+ AS=2.45e-13 PD=1.48e-06 PS=1.48e-06
mXI9/XI140/MM4 N_WL<53>_XI9/XI140/MM4_d N_XI9/NET6_XI9/XI140/MM4_g
+ N_VSS_XI9/XI140/MM4_s N_VSS_XI27/MM16_b N_18 L=1.8e-07 W=5e-07 AD=2.45e-13
+ AS=2.45e-13 PD=1.48e-06 PS=1.48e-06
mXI9/XI139/MM4 N_WL<52>_XI9/XI139/MM4_d N_XI9/NET7_XI9/XI139/MM4_g
+ N_VSS_XI9/XI139/MM4_s N_VSS_XI27/MM16_b N_18 L=1.8e-07 W=5e-07 AD=2.45e-13
+ AS=2.45e-13 PD=1.48e-06 PS=1.48e-06
mXI9/XI144/MM4 N_WL<51>_XI9/XI144/MM4_d N_XI9/NET8_XI9/XI144/MM4_g
+ N_VSS_XI9/XI144/MM4_s N_VSS_XI27/MM16_b N_18 L=1.8e-07 W=5e-07 AD=2.45e-13
+ AS=2.45e-13 PD=1.48e-06 PS=1.48e-06
mXI9/XI143/MM4 N_WL<50>_XI9/XI143/MM4_d N_XI9/NET9_XI9/XI143/MM4_g
+ N_VSS_XI9/XI143/MM4_s N_VSS_XI27/MM16_b N_18 L=1.8e-07 W=5e-07 AD=2.45e-13
+ AS=2.45e-13 PD=1.48e-06 PS=1.48e-06
mXI9/XI145/MM4 N_WL<49>_XI9/XI145/MM4_d N_XI9/NET10_XI9/XI145/MM4_g
+ N_VSS_XI9/XI145/MM4_s N_VSS_XI27/MM16_b N_18 L=1.8e-07 W=5e-07 AD=2.45e-13
+ AS=2.45e-13 PD=1.48e-06 PS=1.48e-06
mXI9/XI146/MM4 N_WL<48>_XI9/XI146/MM4_d N_XI9/NET11_XI9/XI146/MM4_g
+ N_VSS_XI9/XI146/MM4_s N_VSS_XI27/MM16_b N_18 L=1.8e-07 W=5e-07 AD=2.45e-13
+ AS=2.45e-13 PD=1.48e-06 PS=1.48e-06
mXI9/XI125/MM4 N_WL<47>_XI9/XI125/MM4_d N_XI9/NET4_XI9/XI125/MM4_g
+ N_VSS_XI9/XI125/MM4_s N_VSS_XI27/MM16_b N_18 L=1.8e-07 W=5e-07 AD=2.45e-13
+ AS=2.45e-13 PD=1.48e-06 PS=1.48e-06
mXI9/XI126/MM4 N_WL<46>_XI9/XI126/MM4_d N_XI9/NET5_XI9/XI126/MM4_g
+ N_VSS_XI9/XI126/MM4_s N_VSS_XI27/MM16_b N_18 L=1.8e-07 W=5e-07 AD=2.45e-13
+ AS=2.45e-13 PD=1.48e-06 PS=1.48e-06
mXI9/XI124/MM4 N_WL<45>_XI9/XI124/MM4_d N_XI9/NET6_XI9/XI124/MM4_g
+ N_VSS_XI9/XI124/MM4_s N_VSS_XI27/MM16_b N_18 L=1.8e-07 W=5e-07 AD=2.45e-13
+ AS=2.45e-13 PD=1.48e-06 PS=1.48e-06
mXI9/XI123/MM4 N_WL<44>_XI9/XI123/MM4_d N_XI9/NET7_XI9/XI123/MM4_g
+ N_VSS_XI9/XI123/MM4_s N_VSS_XI27/MM16_b N_18 L=1.8e-07 W=5e-07 AD=2.45e-13
+ AS=2.45e-13 PD=1.48e-06 PS=1.48e-06
mXI9/XI128/MM4 N_WL<43>_XI9/XI128/MM4_d N_XI9/NET8_XI9/XI128/MM4_g
+ N_VSS_XI9/XI128/MM4_s N_VSS_XI27/MM16_b N_18 L=1.8e-07 W=5e-07 AD=2.45e-13
+ AS=2.45e-13 PD=1.48e-06 PS=1.48e-06
mXI9/XI127/MM4 N_WL<42>_XI9/XI127/MM4_d N_XI9/NET9_XI9/XI127/MM4_g
+ N_VSS_XI9/XI127/MM4_s N_VSS_XI27/MM16_b N_18 L=1.8e-07 W=5e-07 AD=2.45e-13
+ AS=2.45e-13 PD=1.48e-06 PS=1.48e-06
mXI9/XI129/MM4 N_WL<41>_XI9/XI129/MM4_d N_XI9/NET10_XI9/XI129/MM4_g
+ N_VSS_XI9/XI129/MM4_s N_VSS_XI27/MM16_b N_18 L=1.8e-07 W=5e-07 AD=2.45e-13
+ AS=2.45e-13 PD=1.48e-06 PS=1.48e-06
mXI9/XI130/MM4 N_WL<40>_XI9/XI130/MM4_d N_XI9/NET11_XI9/XI130/MM4_g
+ N_VSS_XI9/XI130/MM4_s N_VSS_XI27/MM16_b N_18 L=1.8e-07 W=5e-07 AD=2.45e-13
+ AS=2.45e-13 PD=1.48e-06 PS=1.48e-06
mXI9/XI120/MM4 N_WL<39>_XI9/XI120/MM4_d N_XI9/NET4_XI9/XI120/MM4_g
+ N_VSS_XI9/XI120/MM4_s N_VSS_XI27/MM16_b N_18 L=1.8e-07 W=5e-07 AD=2.45e-13
+ AS=2.45e-13 PD=1.48e-06 PS=1.48e-06
mXI9/XI119/MM4 N_WL<38>_XI9/XI119/MM4_d N_XI9/NET5_XI9/XI119/MM4_g
+ N_VSS_XI9/XI119/MM4_s N_VSS_XI27/MM16_b N_18 L=1.8e-07 W=5e-07 AD=2.45e-13
+ AS=2.45e-13 PD=1.48e-06 PS=1.48e-06
mXI9/XI121/MM4 N_WL<37>_XI9/XI121/MM4_d N_XI9/NET6_XI9/XI121/MM4_g
+ N_VSS_XI9/XI121/MM4_s N_VSS_XI27/MM16_b N_18 L=1.8e-07 W=5e-07 AD=2.45e-13
+ AS=2.45e-13 PD=1.48e-06 PS=1.48e-06
mXI9/XI122/MM4 N_WL<36>_XI9/XI122/MM4_d N_XI9/NET7_XI9/XI122/MM4_g
+ N_VSS_XI9/XI122/MM4_s N_VSS_XI27/MM16_b N_18 L=1.8e-07 W=5e-07 AD=2.45e-13
+ AS=2.45e-13 PD=1.48e-06 PS=1.48e-06
mXI9/XI117/MM4 N_WL<35>_XI9/XI117/MM4_d N_XI9/NET8_XI9/XI117/MM4_g
+ N_VSS_XI9/XI117/MM4_s N_VSS_XI27/MM16_b N_18 L=1.8e-07 W=5e-07 AD=2.45e-13
+ AS=2.45e-13 PD=1.48e-06 PS=1.48e-06
mXI9/XI118/MM4 N_WL<34>_XI9/XI118/MM4_d N_XI9/NET9_XI9/XI118/MM4_g
+ N_VSS_XI9/XI118/MM4_s N_VSS_XI27/MM16_b N_18 L=1.8e-07 W=5e-07 AD=2.45e-13
+ AS=2.45e-13 PD=1.48e-06 PS=1.48e-06
mXI9/XI116/MM4 N_WL<33>_XI9/XI116/MM4_d N_XI9/NET10_XI9/XI116/MM4_g
+ N_VSS_XI9/XI116/MM4_s N_VSS_XI27/MM16_b N_18 L=1.8e-07 W=5e-07 AD=2.45e-13
+ AS=2.45e-13 PD=1.48e-06 PS=1.48e-06
mXI9/XI115/MM4 N_WL<32>_XI9/XI115/MM4_d N_XI9/NET11_XI9/XI115/MM4_g
+ N_VSS_XI9/XI115/MM4_s N_VSS_XI27/MM16_b N_18 L=1.8e-07 W=5e-07 AD=2.45e-13
+ AS=2.45e-13 PD=1.48e-06 PS=1.48e-06
mXI9/XI104/MM4 N_WL<31>_XI9/XI104/MM4_d N_XI9/NET4_XI9/XI104/MM4_g
+ N_VSS_XI9/XI104/MM4_s N_VSS_XI27/MM16_b N_18 L=1.8e-07 W=5e-07 AD=2.45e-13
+ AS=2.45e-13 PD=1.48e-06 PS=1.48e-06
mXI9/XI103/MM4 N_WL<30>_XI9/XI103/MM4_d N_XI9/NET5_XI9/XI103/MM4_g
+ N_VSS_XI9/XI103/MM4_s N_VSS_XI27/MM16_b N_18 L=1.8e-07 W=5e-07 AD=2.45e-13
+ AS=2.45e-13 PD=1.48e-06 PS=1.48e-06
mXI9/XI105/MM4 N_WL<29>_XI9/XI105/MM4_d N_XI9/NET6_XI9/XI105/MM4_g
+ N_VSS_XI9/XI105/MM4_s N_VSS_XI27/MM16_b N_18 L=1.8e-07 W=5e-07 AD=2.45e-13
+ AS=2.45e-13 PD=1.48e-06 PS=1.48e-06
mXI9/XI106/MM4 N_WL<28>_XI9/XI106/MM4_d N_XI9/NET7_XI9/XI106/MM4_g
+ N_VSS_XI9/XI106/MM4_s N_VSS_XI27/MM16_b N_18 L=1.8e-07 W=5e-07 AD=2.45e-13
+ AS=2.45e-13 PD=1.48e-06 PS=1.48e-06
mXI9/XI101/MM4 N_WL<27>_XI9/XI101/MM4_d N_XI9/NET8_XI9/XI101/MM4_g
+ N_VSS_XI9/XI101/MM4_s N_VSS_XI27/MM16_b N_18 L=1.8e-07 W=5e-07 AD=2.45e-13
+ AS=2.45e-13 PD=1.48e-06 PS=1.48e-06
mXI9/XI102/MM4 N_WL<26>_XI9/XI102/MM4_d N_XI9/NET9_XI9/XI102/MM4_g
+ N_VSS_XI9/XI102/MM4_s N_VSS_XI27/MM16_b N_18 L=1.8e-07 W=5e-07 AD=2.45e-13
+ AS=2.45e-13 PD=1.48e-06 PS=1.48e-06
mXI9/XI100/MM4 N_WL<25>_XI9/XI100/MM4_d N_XI9/NET10_XI9/XI100/MM4_g
+ N_VSS_XI9/XI100/MM4_s N_VSS_XI27/MM16_b N_18 L=1.8e-07 W=5e-07 AD=2.45e-13
+ AS=2.45e-13 PD=1.48e-06 PS=1.48e-06
mXI9/XI99/MM4 N_WL<24>_XI9/XI99/MM4_d N_XI9/NET11_XI9/XI99/MM4_g
+ N_VSS_XI9/XI99/MM4_s N_VSS_XI27/MM16_b N_18 L=1.8e-07 W=5e-07 AD=2.45e-13
+ AS=2.45e-13 PD=1.48e-06 PS=1.48e-06
mXI9/XI109/MM4 N_WL<23>_XI9/XI109/MM4_d N_XI9/NET4_XI9/XI109/MM4_g
+ N_VSS_XI9/XI109/MM4_s N_VSS_XI27/MM16_b N_18 L=1.8e-07 W=5e-07 AD=2.45e-13
+ AS=2.45e-13 PD=1.48e-06 PS=1.48e-06
mXI9/XI110/MM4 N_WL<22>_XI9/XI110/MM4_d N_XI9/NET5_XI9/XI110/MM4_g
+ N_VSS_XI9/XI110/MM4_s N_VSS_XI27/MM16_b N_18 L=1.8e-07 W=5e-07 AD=2.45e-13
+ AS=2.45e-13 PD=1.48e-06 PS=1.48e-06
mXI9/XI108/MM4 N_WL<21>_XI9/XI108/MM4_d N_XI9/NET6_XI9/XI108/MM4_g
+ N_VSS_XI9/XI108/MM4_s N_VSS_XI27/MM16_b N_18 L=1.8e-07 W=5e-07 AD=2.45e-13
+ AS=2.45e-13 PD=1.48e-06 PS=1.48e-06
mXI9/XI107/MM4 N_WL<20>_XI9/XI107/MM4_d N_XI9/NET7_XI9/XI107/MM4_g
+ N_VSS_XI9/XI107/MM4_s N_VSS_XI27/MM16_b N_18 L=1.8e-07 W=5e-07 AD=2.45e-13
+ AS=2.45e-13 PD=1.48e-06 PS=1.48e-06
mXI9/XI112/MM4 N_WL<19>_XI9/XI112/MM4_d N_XI9/NET8_XI9/XI112/MM4_g
+ N_VSS_XI9/XI112/MM4_s N_VSS_XI27/MM16_b N_18 L=1.8e-07 W=5e-07 AD=2.45e-13
+ AS=2.45e-13 PD=1.48e-06 PS=1.48e-06
mXI9/XI111/MM4 N_WL<18>_XI9/XI111/MM4_d N_XI9/NET9_XI9/XI111/MM4_g
+ N_VSS_XI9/XI111/MM4_s N_VSS_XI27/MM16_b N_18 L=1.8e-07 W=5e-07 AD=2.45e-13
+ AS=2.45e-13 PD=1.48e-06 PS=1.48e-06
mXI9/XI113/MM4 N_WL<17>_XI9/XI113/MM4_d N_XI9/NET10_XI9/XI113/MM4_g
+ N_VSS_XI9/XI113/MM4_s N_VSS_XI27/MM16_b N_18 L=1.8e-07 W=5e-07 AD=2.45e-13
+ AS=2.45e-13 PD=1.48e-06 PS=1.48e-06
mXI9/XI114/MM4 N_WL<16>_XI9/XI114/MM4_d N_XI9/NET11_XI9/XI114/MM4_g
+ N_VSS_XI9/XI114/MM4_s N_VSS_XI27/MM16_b N_18 L=1.8e-07 W=5e-07 AD=2.45e-13
+ AS=2.45e-13 PD=1.48e-06 PS=1.48e-06
mXI9/XI93/MM4 N_WL<15>_XI9/XI93/MM4_d N_XI9/NET4_XI9/XI93/MM4_g
+ N_VSS_XI9/XI93/MM4_s N_VSS_XI27/MM16_b N_18 L=1.8e-07 W=5e-07 AD=2.45e-13
+ AS=2.45e-13 PD=1.48e-06 PS=1.48e-06
mXI9/XI94/MM4 N_WL<14>_XI9/XI94/MM4_d N_XI9/NET5_XI9/XI94/MM4_g
+ N_VSS_XI9/XI94/MM4_s N_VSS_XI27/MM16_b N_18 L=1.8e-07 W=5e-07 AD=2.45e-13
+ AS=2.45e-13 PD=1.48e-06 PS=1.48e-06
mXI9/XI92/MM4 N_WL<13>_XI9/XI92/MM4_d N_XI9/NET6_XI9/XI92/MM4_g
+ N_VSS_XI9/XI92/MM4_s N_VSS_XI27/MM16_b N_18 L=1.8e-07 W=5e-07 AD=2.45e-13
+ AS=2.45e-13 PD=1.48e-06 PS=1.48e-06
mXI9/XI91/MM4 N_WL<12>_XI9/XI91/MM4_d N_XI9/NET7_XI9/XI91/MM4_g
+ N_VSS_XI9/XI91/MM4_s N_VSS_XI27/MM16_b N_18 L=1.8e-07 W=5e-07 AD=2.45e-13
+ AS=2.45e-13 PD=1.48e-06 PS=1.48e-06
mXI9/XI96/MM4 N_WL<11>_XI9/XI96/MM4_d N_XI9/NET8_XI9/XI96/MM4_g
+ N_VSS_XI9/XI96/MM4_s N_VSS_XI27/MM16_b N_18 L=1.8e-07 W=5e-07 AD=2.45e-13
+ AS=2.45e-13 PD=1.48e-06 PS=1.48e-06
mXI9/XI95/MM4 N_WL<10>_XI9/XI95/MM4_d N_XI9/NET9_XI9/XI95/MM4_g
+ N_VSS_XI9/XI95/MM4_s N_VSS_XI27/MM16_b N_18 L=1.8e-07 W=5e-07 AD=2.45e-13
+ AS=2.45e-13 PD=1.48e-06 PS=1.48e-06
mXI9/XI97/MM4 N_WL<9>_XI9/XI97/MM4_d N_XI9/NET10_XI9/XI97/MM4_g
+ N_VSS_XI9/XI97/MM4_s N_VSS_XI27/MM16_b N_18 L=1.8e-07 W=5e-07 AD=2.45e-13
+ AS=2.45e-13 PD=1.48e-06 PS=1.48e-06
mXI9/XI98/MM4 N_WL<8>_XI9/XI98/MM4_d N_XI9/NET11_XI9/XI98/MM4_g
+ N_VSS_XI9/XI98/MM4_s N_VSS_XI27/MM16_b N_18 L=1.8e-07 W=5e-07 AD=2.45e-13
+ AS=2.45e-13 PD=1.48e-06 PS=1.48e-06
mXI9/XI88/MM4 N_WL<7>_XI9/XI88/MM4_d N_XI9/NET4_XI9/XI88/MM4_g
+ N_VSS_XI9/XI88/MM4_s N_VSS_XI27/MM16_b N_18 L=1.8e-07 W=5e-07 AD=2.45e-13
+ AS=2.45e-13 PD=1.48e-06 PS=1.48e-06
mXI9/XI87/MM4 N_WL<6>_XI9/XI87/MM4_d N_XI9/NET5_XI9/XI87/MM4_g
+ N_VSS_XI9/XI87/MM4_s N_VSS_XI27/MM16_b N_18 L=1.8e-07 W=5e-07 AD=2.45e-13
+ AS=2.45e-13 PD=1.48e-06 PS=1.48e-06
mXI9/XI89/MM4 N_WL<5>_XI9/XI89/MM4_d N_XI9/NET6_XI9/XI89/MM4_g
+ N_VSS_XI9/XI89/MM4_s N_VSS_XI27/MM16_b N_18 L=1.8e-07 W=5e-07 AD=2.45e-13
+ AS=2.45e-13 PD=1.48e-06 PS=1.48e-06
mXI9/XI90/MM4 N_WL<4>_XI9/XI90/MM4_d N_XI9/NET7_XI9/XI90/MM4_g
+ N_VSS_XI9/XI90/MM4_s N_VSS_XI27/MM16_b N_18 L=1.8e-07 W=5e-07 AD=2.45e-13
+ AS=2.45e-13 PD=1.48e-06 PS=1.48e-06
mXI9/XI85/MM4 N_WL<3>_XI9/XI85/MM4_d N_XI9/NET8_XI9/XI85/MM4_g
+ N_VSS_XI9/XI85/MM4_s N_VSS_XI27/MM16_b N_18 L=1.8e-07 W=5e-07 AD=2.45e-13
+ AS=2.45e-13 PD=1.48e-06 PS=1.48e-06
mXI9/XI86/MM4 N_WL<2>_XI9/XI86/MM4_d N_XI9/NET9_XI9/XI86/MM4_g
+ N_VSS_XI9/XI86/MM4_s N_VSS_XI27/MM16_b N_18 L=1.8e-07 W=5e-07 AD=2.45e-13
+ AS=2.45e-13 PD=1.48e-06 PS=1.48e-06
mXI9/XI84/MM4 N_WL<1>_XI9/XI84/MM4_d N_XI9/NET10_XI9/XI84/MM4_g
+ N_VSS_XI9/XI84/MM4_s N_VSS_XI27/MM16_b N_18 L=1.8e-07 W=5e-07 AD=2.45e-13
+ AS=2.45e-13 PD=1.48e-06 PS=1.48e-06
mXI9/XI2/MM4 N_WL<0>_XI9/XI2/MM4_d N_XI9/NET11_XI9/XI2/MM4_g N_VSS_XI9/XI2/MM4_s
+ N_VSS_XI27/MM16_b N_18 L=1.8e-07 W=5e-07 AD=2.45e-13 AS=2.45e-13 PD=1.48e-06
+ PS=1.48e-06
mXI9/XI136/MM5 N_WL<63>_XI9/XI136/MM5_d N_XI9/NET17_XI9/XI136/MM5_g
+ N_VSS_XI9/XI136/MM5_s N_VSS_XI27/MM16_b N_18 L=1.8e-07 W=5e-07 AD=2.45e-13
+ AS=2.45e-13 PD=1.48e-06 PS=1.48e-06
mXI9/XI135/MM5 N_WL<62>_XI9/XI135/MM5_d N_XI9/NET17_XI9/XI135/MM5_g
+ N_VSS_XI9/XI135/MM5_s N_VSS_XI27/MM16_b N_18 L=1.8e-07 W=5e-07 AD=2.45e-13
+ AS=2.45e-13 PD=1.48e-06 PS=1.48e-06
mXI9/XI137/MM5 N_WL<61>_XI9/XI137/MM5_d N_XI9/NET17_XI9/XI137/MM5_g
+ N_VSS_XI9/XI137/MM5_s N_VSS_XI27/MM16_b N_18 L=1.8e-07 W=5e-07 AD=2.45e-13
+ AS=2.45e-13 PD=1.48e-06 PS=1.48e-06
mXI9/XI138/MM5 N_WL<60>_XI9/XI138/MM5_d N_XI9/NET17_XI9/XI138/MM5_g