* SPICE NETLIST
***************************************

.SUBCKT RM1 A B
.ENDS
***************************************
.SUBCKT RM2 A B
.ENDS
***************************************
.SUBCKT RM3 A B
.ENDS
***************************************
.SUBCKT RM4 A B
.ENDS
***************************************
.SUBCKT RM5 A B
.ENDS
***************************************
.SUBCKT RM6 A B
.ENDS
***************************************
.SUBCKT DN A B
.ENDS
***************************************
.SUBCKT DP A B
.ENDS
***************************************
.SUBCKT L_SLCR20K_RF POS NEG SUB
.ENDS
***************************************
.SUBCKT PAD_RF POS NEG
.ENDS
***************************************
.SUBCKT mos_unit2
** N=3 EP=0 IP=0 FDC=0
.ENDS
***************************************
.SUBCKT mos_unit
** N=4 EP=0 IP=0 FDC=0
.ENDS
***************************************
.SUBCKT Final_SA 1 2 3 4 5 6 7
** N=10 EP=7 IP=40 FDC=12
M0 9 4 8 5 N_18 L=1.8e-07 W=5e-07 AD=2.45e-13 AS=2.45e-13 PD=1.48e-06 PS=1.48e-06 $X=-2175 $Y=-410 $D=0
M1 5 3 8 5 N_18 L=1.8e-07 W=5e-07 AD=1.275e-13 AS=2.45e-13 PD=5.1e-07 PS=1.48e-06 $X=-1310 $Y=-1590 $D=0
M2 2 1 9 5 N_18 L=1.8e-07 W=5e-07 AD=2.45e-13 AS=2.45e-13 PD=1.48e-06 PS=1.48e-06 $X=-715 $Y=-410 $D=0
M3 8 3 5 5 N_18 L=1.8e-07 W=5e-07 AD=1.275e-13 AS=1.275e-13 PD=5.1e-07 PS=5.1e-07 $X=-620 $Y=-1590 $D=0
M4 5 3 8 5 N_18 L=1.8e-07 W=5e-07 AD=1.275e-13 AS=1.275e-13 PD=5.1e-07 PS=5.1e-07 $X=70 $Y=-1590 $D=0
M5 10 2 1 5 N_18 L=1.8e-07 W=5e-07 AD=2.45e-13 AS=2.45e-13 PD=1.48e-06 PS=1.48e-06 $X=745 $Y=-410 $D=0
M6 8 3 5 5 N_18 L=1.8e-07 W=5e-07 AD=2.45e-13 AS=1.275e-13 PD=1.48e-06 PS=5.1e-07 $X=760 $Y=-1590 $D=0
M7 8 6 10 5 N_18 L=1.8e-07 W=5e-07 AD=2.45e-13 AS=2.45e-13 PD=1.48e-06 PS=1.48e-06 $X=2205 $Y=-410 $D=0
M8 2 3 7 7 P_18 L=1.8e-07 W=5e-07 AD=2.45e-13 AS=2.45e-13 PD=1.48e-06 PS=1.48e-06 $X=-2175 $Y=1410 $D=1
M9 2 1 7 7 P_18 L=1.8e-07 W=5e-07 AD=2.45e-13 AS=2.45e-13 PD=1.48e-06 PS=1.48e-06 $X=-715 $Y=1410 $D=1
M10 7 2 1 7 P_18 L=1.8e-07 W=5e-07 AD=2.45e-13 AS=2.45e-13 PD=1.48e-06 PS=1.48e-06 $X=745 $Y=1410 $D=1
M11 7 3 1 7 P_18 L=1.8e-07 W=5e-07 AD=2.45e-13 AS=2.45e-13 PD=1.48e-06 PS=1.48e-06 $X=2205 $Y=1410 $D=1
.ENDS
***************************************
.SUBCKT final_mos_unit
** N=3 EP=0 IP=0 FDC=0
.ENDS
***************************************
.SUBCKT inv_final 1 2 3 4
** N=4 EP=4 IP=0 FDC=2
M0 4 1 2 2 N_18 L=1.8e-07 W=5e-07 AD=2.55e-13 AS=2.55e-13 PD=1.52e-06 PS=1.52e-06 $X=-65 $Y=-2195 $D=0
M1 4 1 3 3 P_18 L=1.8e-07 W=1.5e-06 AD=7.65e-13 AS=7.65e-13 PD=2.52e-06 PS=2.52e-06 $X=-65 $Y=-490 $D=1
.ENDS
***************************************
.SUBCKT final_and 1 2 3 4 5
** N=7 EP=5 IP=28 FDC=6
M0 7 2 4 4 N_18 L=1.8e-07 W=5e-07 AD=2.45e-13 AS=2.45e-13 PD=1.48e-06 PS=1.48e-06 $X=8825 $Y=670 $D=0
M1 6 1 7 4 N_18 L=1.8e-07 W=5e-07 AD=2.45e-13 AS=2.45e-13 PD=1.48e-06 PS=1.48e-06 $X=8825 $Y=2130 $D=0
M2 6 2 3 3 P_18 L=1.8e-07 W=1.5e-06 AD=7.35e-13 AS=7.35e-13 PD=2.48e-06 PS=2.48e-06 $X=10465 $Y=670 $D=1
M3 6 1 3 3 P_18 L=1.8e-07 W=1.5e-06 AD=7.35e-13 AS=7.35e-13 PD=2.48e-06 PS=2.48e-06 $X=10465 $Y=2130 $D=1
X12 6 4 3 5 inv_final $T=14700 2115 0 0 $X=13540 $Y=-1150
.ENDS
***************************************
.SUBCKT ICV_1 1 2 3 4 5
** N=5 EP=5 IP=8 FDC=4
X0 1 2 3 4 inv_final $T=0 0 0 0 $X=-1160 $Y=-3265
X1 4 2 3 5 inv_final $T=1600 0 0 0 $X=440 $Y=-3265
.ENDS
***************************************
.SUBCKT ICV_2 1 2 3 4 5
** N=7 EP=5 IP=10 FDC=8
X0 1 2 3 6 7 ICV_1 $T=0 0 0 0 $X=-1160 $Y=-3265
X1 7 2 3 4 5 ICV_1 $T=3200 0 0 0 $X=2040 $Y=-3265
.ENDS
***************************************
.SUBCKT inv_1u5_0u5 1 2 3 4
** N=4 EP=4 IP=0 FDC=2
M0 4 1 2 2 N_18 L=1.8e-07 W=5e-07 AD=2.55e-13 AS=2.55e-13 PD=1.52e-06 PS=1.52e-06 $X=-65 $Y=-2195 $D=0
M1 4 1 3 3 P_18 L=1.8e-07 W=1.5e-06 AD=7.65e-13 AS=7.65e-13 PD=2.52e-06 PS=2.52e-06 $X=-65 $Y=-490 $D=1
.ENDS
***************************************
.SUBCKT ICV_3
** N=6 EP=0 IP=12 FDC=0
.ENDS
***************************************
.SUBCKT nand4_final
** N=9 EP=0 IP=24 FDC=0
.ENDS
***************************************
.SUBCKT Ydecoder_final 1 2 3 4 5 6 7 8 9 10 11 12 13
** N=40 EP=13 IP=84 FDC=70
M0 17 12 13 13 N_18 L=1.8e-07 W=5e-07 AD=2.45e-13 AS=2.45e-13 PD=1.48e-06 PS=1.48e-06 $X=9215 $Y=-1665 $D=0
M1 21 3 17 13 N_18 L=1.8e-07 W=5e-07 AD=2.45e-13 AS=2.45e-13 PD=1.48e-06 PS=1.48e-06 $X=9215 $Y=-205 $D=0
M2 25 2 21 13 N_18 L=1.8e-07 W=5e-07 AD=2.45e-13 AS=2.45e-13 PD=1.48e-06 PS=1.48e-06 $X=9215 $Y=1255 $D=0
M3 4 14 25 13 N_18 L=1.8e-07 W=5e-07 AD=2.45e-13 AS=2.45e-13 PD=1.48e-06 PS=1.48e-06 $X=9215 $Y=2715 $D=0
M4 18 12 13 13 N_18 L=1.8e-07 W=5e-07 AD=2.45e-13 AS=2.45e-13 PD=1.48e-06 PS=1.48e-06 $X=9215 $Y=4355 $D=0
M5 22 16 18 13 N_18 L=1.8e-07 W=5e-07 AD=2.45e-13 AS=2.45e-13 PD=1.48e-06 PS=1.48e-06 $X=9215 $Y=5815 $D=0
M6 26 2 22 13 N_18 L=1.8e-07 W=5e-07 AD=2.45e-13 AS=2.45e-13 PD=1.48e-06 PS=1.48e-06 $X=9215 $Y=7275 $D=0
M7 5 14 26 13 N_18 L=1.8e-07 W=5e-07 AD=2.45e-13 AS=2.45e-13 PD=1.48e-06 PS=1.48e-06 $X=9215 $Y=8735 $D=0
M8 19 12 13 13 N_18 L=1.8e-07 W=5e-07 AD=2.45e-13 AS=2.45e-13 PD=1.48e-06 PS=1.48e-06 $X=9215 $Y=10375 $D=0
M9 23 3 19 13 N_18 L=1.8e-07 W=5e-07 AD=2.45e-13 AS=2.45e-13 PD=1.48e-06 PS=1.48e-06 $X=9215 $Y=11835 $D=0
M10 27 15 23 13 N_18 L=1.8e-07 W=5e-07 AD=2.45e-13 AS=2.45e-13 PD=1.48e-06 PS=1.48e-06 $X=9215 $Y=13295 $D=0
M11 6 14 27 13 N_18 L=1.8e-07 W=5e-07 AD=2.45e-13 AS=2.45e-13 PD=1.48e-06 PS=1.48e-06 $X=9215 $Y=14755 $D=0
M12 20 12 13 13 N_18 L=1.8e-07 W=5e-07 AD=2.45e-13 AS=2.45e-13 PD=1.48e-06 PS=1.48e-06 $X=9215 $Y=16395 $D=0
M13 24 16 20 13 N_18 L=1.8e-07 W=5e-07 AD=2.45e-13 AS=2.45e-13 PD=1.48e-06 PS=1.48e-06 $X=9215 $Y=17855 $D=0
M14 28 15 24 13 N_18 L=1.8e-07 W=5e-07 AD=2.45e-13 AS=2.45e-13 PD=1.48e-06 PS=1.48e-06 $X=9215 $Y=19315 $D=0
M15 7 14 28 13 N_18 L=1.8e-07 W=5e-07 AD=2.45e-13 AS=2.45e-13 PD=1.48e-06 PS=1.48e-06 $X=9215 $Y=20775 $D=0
M16 29 12 13 13 N_18 L=1.8e-07 W=5e-07 AD=2.45e-13 AS=2.45e-13 PD=1.48e-06 PS=1.48e-06 $X=22140 $Y=-1645 $D=0
M17 33 3 29 13 N_18 L=1.8e-07 W=5e-07 AD=2.45e-13 AS=2.45e-13 PD=1.48e-06 PS=1.48e-06 $X=22140 $Y=-185 $D=0
M18 37 2 33 13 N_18 L=1.8e-07 W=5e-07 AD=2.45e-13 AS=2.45e-13 PD=1.48e-06 PS=1.48e-06 $X=22140 $Y=1275 $D=0
M19 8 1 37 13 N_18 L=1.8e-07 W=5e-07 AD=2.45e-13 AS=2.45e-13 PD=1.48e-06 PS=1.48e-06 $X=22140 $Y=2735 $D=0
M20 30 12 13 13 N_18 L=1.8e-07 W=5e-07 AD=2.45e-13 AS=2.45e-13 PD=1.48e-06 PS=1.48e-06 $X=22140 $Y=4375 $D=0
M21 34 16 30 13 N_18 L=1.8e-07 W=5e-07 AD=2.45e-13 AS=2.45e-13 PD=1.48e-06 PS=1.48e-06 $X=22140 $Y=5835 $D=0
M22 38 2 34 13 N_18 L=1.8e-07 W=5e-07 AD=2.45e-13 AS=2.45e-13 PD=1.48e-06 PS=1.48e-06 $X=22140 $Y=7295 $D=0
M23 9 1 38 13 N_18 L=1.8e-07 W=5e-07 AD=2.45e-13 AS=2.45e-13 PD=1.48e-06 PS=1.48e-06 $X=22140 $Y=8755 $D=0
M24 31 12 13 13 N_18 L=1.8e-07 W=5e-07 AD=2.45e-13 AS=2.45e-13 PD=1.48e-06 PS=1.48e-06 $X=22140 $Y=10395 $D=0
M25 35 3 31 13 N_18 L=1.8e-07 W=5e-07 AD=2.45e-13 AS=2.45e-13 PD=1.48e-06 PS=1.48e-06 $X=22140 $Y=11855 $D=0
M26 39 15 35 13 N_18 L=1.8e-07 W=5e-07 AD=2.45e-13 AS=2.45e-13 PD=1.48e-06 PS=1.48e-06 $X=22140 $Y=13315 $D=0
M27 10 1 39 13 N_18 L=1.8e-07 W=5e-07 AD=2.45e-13 AS=2.45e-13 PD=1.48e-06 PS=1.48e-06 $X=22140 $Y=14775 $D=0
M28 32 12 13 13 N_18 L=1.8e-07 W=5e-07 AD=2.45e-13 AS=2.45e-13 PD=1.48e-06 PS=1.48e-06 $X=22140 $Y=16415 $D=0
M29 36 16 32 13 N_18 L=1.8e-07 W=5e-07 AD=2.45e-13 AS=2.45e-13 PD=1.48e-06 PS=1.48e-06 $X=22140 $Y=17875 $D=0
M30 40 15 36 13 N_18 L=1.8e-07 W=5e-07 AD=2.45e-13 AS=2.45e-13 PD=1.48e-06 PS=1.48e-06 $X=22140 $Y=19335 $D=0
M31 11 1 40 13 N_18 L=1.8e-07 W=5e-07 AD=2.45e-13 AS=2.45e-13 PD=1.48e-06 PS=1.48e-06 $X=22140 $Y=20795 $D=0
M32 4 12 12 12 P_18 L=1.8e-07 W=1.5e-06 AD=7.35e-13 AS=7.35e-13 PD=2.48e-06 PS=2.48e-06 $X=10645 $Y=-1665 $D=1
M33 4 3 12 12 P_18 L=1.8e-07 W=1.5e-06 AD=7.35e-13 AS=7.35e-13 PD=2.48e-06 PS=2.48e-06 $X=10645 $Y=-205 $D=1
M34 4 2 12 12 P_18 L=1.8e-07 W=1.5e-06 AD=7.35e-13 AS=7.35e-13 PD=2.48e-06 PS=2.48e-06 $X=10645 $Y=1255 $D=1
M35 4 14 12 12 P_18 L=1.8e-07 W=1.5e-06 AD=7.35e-13 AS=7.35e-13 PD=2.48e-06 PS=2.48e-06 $X=10645 $Y=2715 $D=1
M36 5 12 12 12 P_18 L=1.8e-07 W=1.5e-06 AD=7.35e-13 AS=7.35e-13 PD=2.48e-06 PS=2.48e-06 $X=10645 $Y=4355 $D=1
M37 5 16 12 12 P_18 L=1.8e-07 W=1.5e-06 AD=7.35e-13 AS=7.35e-13 PD=2.48e-06 PS=2.48e-06 $X=10645 $Y=5815 $D=1
M38 5 2 12 12 P_18 L=1.8e-07 W=1.5e-06 AD=7.35e-13 AS=7.35e-13 PD=2.48e-06 PS=2.48e-06 $X=10645 $Y=7275 $D=1
M39 5 14 12 12 P_18 L=1.8e-07 W=1.5e-06 AD=7.35e-13 AS=7.35e-13 PD=2.48e-06 PS=2.48e-06 $X=10645 $Y=8735 $D=1
M40 6 12 12 12 P_18 L=1.8e-07 W=1.5e-06 AD=7.35e-13 AS=7.35e-13 PD=2.48e-06 PS=2.48e-06 $X=10645 $Y=10375 $D=1
M41 6 3 12 12 P_18 L=1.8e-07 W=1.5e-06 AD=7.35e-13 AS=7.35e-13 PD=2.48e-06 PS=2.48e-06 $X=10645 $Y=11835 $D=1
M42 6 15 12 12 P_18 L=1.8e-07 W=1.5e-06 AD=7.35e-13 AS=7.35e-13 PD=2.48e-06 PS=2.48e-06 $X=10645 $Y=13295 $D=1
M43 6 14 12 12 P_18 L=1.8e-07 W=1.5e-06 AD=7.35e-13 AS=7.35e-13 PD=2.48e-06 PS=2.48e-06 $X=10645 $Y=14755 $D=1
M44 7 12 12 12 P_18 L=1.8e-07 W=1.5e-06 AD=7.35e-13 AS=7.35e-13 PD=2.48e-06 PS=2.48e-06 $X=10645 $Y=16395 $D=1
M45 7 16 12 12 P_18 L=1.8e-07 W=1.5e-06 AD=7.35e-13 AS=7.35e-13 PD=2.48e-06 PS=2.48e-06 $X=10645 $Y=17855 $D=1
M46 7 15 12 12 P_18 L=1.8e-07 W=1.5e-06 AD=7.35e-13 AS=7.35e-13 PD=2.48e-06 PS=2.48e-06 $X=10645 $Y=19315 $D=1
M47 7 14 12 12 P_18 L=1.8e-07 W=1.5e-06 AD=7.35e-13 AS=7.35e-13 PD=2.48e-06 PS=2.48e-06 $X=10645 $Y=20775 $D=1
M48 8 12 12 12 P_18 L=1.8e-07 W=1.5e-06 AD=7.35e-13 AS=7.35e-13 PD=2.48e-06 PS=2.48e-06 $X=23570 $Y=-1645 $D=1
M49 8 3 12 12 P_18 L=1.8e-07 W=1.5e-06 AD=7.35e-13 AS=7.35e-13 PD=2.48e-06 PS=2.48e-06 $X=23570 $Y=-185 $D=1
M50 8 2 12 12 P_18 L=1.8e-07 W=1.5e-06 AD=7.35e-13 AS=7.35e-13 PD=2.48e-06 PS=2.48e-06 $X=23570 $Y=1275 $D=1
M51 8 1 12 12 P_18 L=1.8e-07 W=1.5e-06 AD=7.35e-13 AS=7.35e-13 PD=2.48e-06 PS=2.48e-06 $X=23570 $Y=2735 $D=1
M52 9 12 12 12 P_18 L=1.8e-07 W=1.5e-06 AD=7.35e-13 AS=7.35e-13 PD=2.48e-06 PS=2.48e-06 $X=23570 $Y=4375 $D=1
M53 9 16 12 12 P_18 L=1.8e-07 W=1.5e-06 AD=7.35e-13 AS=7.35e-13 PD=2.48e-06 PS=2.48e-06 $X=23570 $Y=5835 $D=1
M54 9 2 12 12 P_18 L=1.8e-07 W=1.5e-06 AD=7.35e-13 AS=7.35e-13 PD=2.48e-06 PS=2.48e-06 $X=23570 $Y=7295 $D=1
M55 9 1 12 12 P_18 L=1.8e-07 W=1.5e-06 AD=7.35e-13 AS=7.35e-13 PD=2.48e-06 PS=2.48e-06 $X=23570 $Y=8755 $D=1
M56 10 12 12 12 P_18 L=1.8e-07 W=1.5e-06 AD=7.35e-13 AS=7.35e-13 PD=2.48e-06 PS=2.48e-06 $X=23570 $Y=10395 $D=1
M57 10 3 12 12 P_18 L=1.8e-07 W=1.5e-06 AD=7.35e-13 AS=7.35e-13 PD=2.48e-06 PS=2.48e-06 $X=23570 $Y=11855 $D=1
M58 10 15 12 12 P_18 L=1.8e-07 W=1.5e-06 AD=7.35e-13 AS=7.35e-13 PD=2.48e-06 PS=2.48e-06 $X=23570 $Y=13315 $D=1
M59 10 1 12 12 P_18 L=1.8e-07 W=1.5e-06 AD=7.35e-13 AS=7.35e-13 PD=2.48e-06 PS=2.48e-06 $X=23570 $Y=14775 $D=1
M60 11 12 12 12 P_18 L=1.8e-07 W=1.5e-06 AD=7.35e-13 AS=7.35e-13 PD=2.48e-06 PS=2.48e-06 $X=23570 $Y=16415 $D=1
M61 11 16 12 12 P_18 L=1.8e-07 W=1.5e-06 AD=7.35e-13 AS=7.35e-13 PD=2.48e-06 PS=2.48e-06 $X=23570 $Y=17875 $D=1
M62 11 15 12 12 P_18 L=1.8e-07 W=1.5e-06 AD=7.35e-13 AS=7.35e-13 PD=2.48e-06 PS=2.48e-06 $X=23570 $Y=19335 $D=1
M63 11 1 12 12 P_18 L=1.8e-07 W=1.5e-06 AD=7.35e-13 AS=7.35e-13 PD=2.48e-06 PS=2.48e-06 $X=23570 $Y=20795 $D=1
X64 3 13 12 16 inv_1u5_0u5 $T=985 1015 0 0 $X=-175 $Y=-2250
X65 2 13 12 15 inv_1u5_0u5 $T=985 7265 0 0 $X=-175 $Y=4000
X66 1 13 12 14 inv_1u5_0u5 $T=985 19305 0 0 $X=-175 $Y=16040
.ENDS
***************************************
.SUBCKT FInal_FF 1 2 3 4 5 6
** N=15 EP=6 IP=16 FDC=20
M0 9 1 7 3 N_18 L=1.8e-07 W=5e-07 AD=2.55e-13 AS=2.55e-13 PD=1.52e-06 PS=1.52e-06 $X=-2285 $Y=-2400 $D=0
M1 11 2 3 3 N_18 L=1.8e-07 W=5e-07 AD=2.55e-13 AS=2.55e-13 PD=1.52e-06 PS=1.52e-06 $X=1670 $Y=-2400 $D=0
M2 7 12 11 3 N_18 L=1.8e-07 W=5e-07 AD=2.55e-13 AS=2.55e-13 PD=1.52e-06 PS=1.52e-06 $X=3170 $Y=-2400 $D=0
M3 8 2 12 3 N_18 L=1.8e-07 W=5e-07 AD=2.55e-13 AS=2.55e-13 PD=1.52e-06 PS=1.52e-06 $X=5540 $Y=-1425 $D=0
M4 13 1 3 3 N_18 L=1.8e-07 W=5e-07 AD=2.55e-13 AS=2.55e-13 PD=1.52e-06 PS=1.52e-06 $X=9425 $Y=-2400 $D=0
M5 8 15 13 3 N_18 L=1.8e-07 W=5e-07 AD=2.55e-13 AS=2.55e-13 PD=1.52e-06 PS=1.52e-06 $X=10925 $Y=-2400 $D=0
M6 9 2 7 4 P_18 L=1.8e-07 W=1.5e-06 AD=7.65e-13 AS=7.65e-13 PD=2.52e-06 PS=2.52e-06 $X=-2285 $Y=-5120 $D=1
M7 10 1 4 4 P_18 L=1.8e-07 W=1.5e-06 AD=7.65e-13 AS=7.65e-13 PD=2.52e-06 PS=2.52e-06 $X=1570 $Y=-5120 $D=1
M8 7 12 10 4 P_18 L=1.8e-07 W=1.5e-06 AD=7.65e-13 AS=7.65e-13 PD=2.52e-06 PS=2.52e-06 $X=3170 $Y=-5120 $D=1
M9 8 1 12 4 P_18 L=1.8e-07 W=1.5e-06 AD=7.65e-13 AS=7.65e-13 PD=2.52e-06 PS=2.52e-06 $X=5540 $Y=295 $D=1
M10 14 2 4 4 P_18 L=1.8e-07 W=1.5e-06 AD=7.65e-13 AS=7.65e-13 PD=2.52e-06 PS=2.52e-06 $X=9425 $Y=-5120 $D=1
M11 8 15 14 4 P_18 L=1.8e-07 W=1.5e-06 AD=7.65e-13 AS=7.65e-13 PD=2.52e-06 PS=2.52e-06 $X=10925 $Y=-5120 $D=1
X12 5 3 4 9 inv_1u5_0u5 $T=-2220 1570 0 0 $X=-3380 $Y=-1695
X13 7 3 4 12 inv_1u5_0u5 $T=1735 1565 0 0 $X=575 $Y=-1700
X14 8 3 4 15 inv_1u5_0u5 $T=9490 1565 0 0 $X=8330 $Y=-1700
X15 15 3 4 6 inv_1u5_0u5 $T=13725 1565 0 0 $X=12565 $Y=-1700
.ENDS
***************************************
.SUBCKT FinalProject YOUT<0> YOUT<1> YOUT<2> YOUT<3> YOUT<4> YOUT<5> YOUT<6> YOUT<7> Dout<0> SO<0> Dout<1> SO<1> VDD CLK WL_EN SAEN BL<0> BL<1> DL<0> BL<2>
+ BL<3> BL<4> BL<5> BL<6> BL<7> BL<8> DL<1> BL<9> BL<10> BL<11> BL<12> BL<13> BL<14> BL<15> VSS X_sel<5> X_sel<2> X_sel<4> X_sel<1> X_sel<3>
+ X_sel<0> WL<63> WL<62> WL<61> WL<60> WL<59> WL<58> WL<57> WL<56> WL<55> WL<54> WL<53> WL<52> WL<51> WL<50> WL<49> WL<48> WL<47> WL<46> WL<45>
+ WL<44> WL<43> WL<42> WL<41> WL<40> WL<39> WL<38> WL<37> WL<36> WL<35> WL<34> WL<33> WL<32> WL<31> WL<30> WL<29> WL<28> WL<27> WL<26> WL<25>
+ WL<24> WL<23> WL<22> WL<21> WL<20> WL<19> WL<18> WL<17> WL<16> WL<15> WL<14> WL<13> WL<12> WL<11> WL<10> WL<9> WL<8> WL<7> WL<6> WL<5>
+ WL<4> WL<3> WL<2> WL<1> WL<0> Y_sel<0> Y_sel<2> Y_sel<1> Vref A<2> A<1> A<0> A<6> A<7> A<8> A<3> A<4> A<5>
** N=802 EP=118 IP=149 FDC=1866
M0 61 X_sel<3> VSS VSS N_18 L=1.8e-07 W=5e-07 AD=2.55e-13 AS=2.55e-13 PD=1.52e-06 PS=1.52e-06 $X=-66670 $Y=7260 $D=0
M1 59 X_sel<4> VSS VSS N_18 L=1.8e-07 W=5e-07 AD=2.55e-13 AS=2.55e-13 PD=1.52e-06 PS=1.52e-06 $X=-66670 $Y=19300 $D=0
M2 63 X_sel<5> VSS VSS N_18 L=1.8e-07 W=5e-07 AD=2.55e-13 AS=2.55e-13 PD=1.52e-06 PS=1.52e-06 $X=-66670 $Y=31340 $D=0
M3 62 X_sel<0> VSS VSS N_18 L=1.8e-07 W=5e-07 AD=2.55e-13 AS=2.55e-13 PD=1.52e-06 PS=1.52e-06 $X=-66670 $Y=55940 $D=0
M4 60 X_sel<1> VSS VSS N_18 L=1.8e-07 W=5e-07 AD=2.55e-13 AS=2.55e-13 PD=1.52e-06 PS=1.52e-06 $X=-66670 $Y=67980 $D=0
M5 64 X_sel<2> VSS VSS N_18 L=1.8e-07 W=5e-07 AD=2.55e-13 AS=2.55e-13 PD=1.52e-06 PS=1.52e-06 $X=-66670 $Y=80020 $D=0
M6 151 WL_EN VSS VSS N_18 L=1.8e-07 W=5e-07 AD=2.45e-13 AS=2.45e-13 PD=1.48e-06 PS=1.48e-06 $X=-58375 $Y=-11510 $D=0
M7 152 X_sel<3> 151 VSS N_18 L=1.8e-07 W=5e-07 AD=2.45e-13 AS=2.45e-13 PD=1.48e-06 PS=1.48e-06 $X=-58375 $Y=-10050 $D=0
M8 153 X_sel<4> 152 VSS N_18 L=1.8e-07 W=5e-07 AD=2.45e-13 AS=2.45e-13 PD=1.48e-06 PS=1.48e-06 $X=-58375 $Y=-8590 $D=0
M9 16 X_sel<5> 153 VSS N_18 L=1.8e-07 W=5e-07 AD=2.45e-13 AS=2.45e-13 PD=1.48e-06 PS=1.48e-06 $X=-58375 $Y=-7130 $D=0
M10 154 WL_EN VSS VSS N_18 L=1.8e-07 W=5e-07 AD=2.45e-13 AS=2.45e-13 PD=1.48e-06 PS=1.48e-06 $X=-58375 $Y=-5490 $D=0
M11 155 61 154 VSS N_18 L=1.8e-07 W=5e-07 AD=2.45e-13 AS=2.45e-13 PD=1.48e-06 PS=1.48e-06 $X=-58375 $Y=-4030 $D=0
M12 156 X_sel<4> 155 VSS N_18 L=1.8e-07 W=5e-07 AD=2.45e-13 AS=2.45e-13 PD=1.48e-06 PS=1.48e-06 $X=-58375 $Y=-2570 $D=0
M13 17 X_sel<5> 156 VSS N_18 L=1.8e-07 W=5e-07 AD=2.45e-13 AS=2.45e-13 PD=1.48e-06 PS=1.48e-06 $X=-58375 $Y=-1110 $D=0
M14 157 WL_EN VSS VSS N_18 L=1.8e-07 W=5e-07 AD=2.45e-13 AS=2.45e-13 PD=1.48e-06 PS=1.48e-06 $X=-58375 $Y=530 $D=0
M15 158 X_sel<3> 157 VSS N_18 L=1.8e-07 W=5e-07 AD=2.45e-13 AS=2.45e-13 PD=1.48e-06 PS=1.48e-06 $X=-58375 $Y=1990 $D=0
M16 159 59 158 VSS N_18 L=1.8e-07 W=5e-07 AD=2.45e-13 AS=2.45e-13 PD=1.48e-06 PS=1.48e-06 $X=-58375 $Y=3450 $D=0
M17 18 X_sel<5> 159 VSS N_18 L=1.8e-07 W=5e-07 AD=2.45e-13 AS=2.45e-13 PD=1.48e-06 PS=1.48e-06 $X=-58375 $Y=4910 $D=0
M18 160 WL_EN VSS VSS N_18 L=1.8e-07 W=5e-07 AD=2.45e-13 AS=2.45e-13 PD=1.48e-06 PS=1.48e-06 $X=-58375 $Y=6550 $D=0
M19 161 61 160 VSS N_18 L=1.8e-07 W=5e-07 AD=2.45e-13 AS=2.45e-13 PD=1.48e-06 PS=1.48e-06 $X=-58375 $Y=8010 $D=0
M20 162 59 161 VSS N_18 L=1.8e-07 W=5e-07 AD=2.45e-13 AS=2.45e-13 PD=1.48e-06 PS=1.48e-06 $X=-58375 $Y=9470 $D=0
M21 19 X_sel<5> 162 VSS N_18 L=1.8e-07 W=5e-07 AD=2.45e-13 AS=2.45e-13 PD=1.48e-06 PS=1.48e-06 $X=-58375 $Y=10930 $D=0
M22 163 WL_EN VSS VSS N_18 L=1.8e-07 W=5e-07 AD=2.45e-13 AS=2.45e-13 PD=1.48e-06 PS=1.48e-06 $X=-58375 $Y=12570 $D=0
M23 164 X_sel<3> 163 VSS N_18 L=1.8e-07 W=5e-07 AD=2.45e-13 AS=2.45e-13 PD=1.48e-06 PS=1.48e-06 $X=-58375 $Y=14030 $D=0
M24 165 X_sel<4> 164 VSS N_18 L=1.8e-07 W=5e-07 AD=2.45e-13 AS=2.45e-13 PD=1.48e-06 PS=1.48e-06 $X=-58375 $Y=15490 $D=0
M25 20 63 165 VSS N_18 L=1.8e-07 W=5e-07 AD=2.45e-13 AS=2.45e-13 PD=1.48e-06 PS=1.48e-06 $X=-58375 $Y=16950 $D=0
M26 166 WL_EN VSS VSS N_18 L=1.8e-07 W=5e-07 AD=2.45e-13 AS=2.45e-13 PD=1.48e-06 PS=1.48e-06 $X=-58375 $Y=18590 $D=0
M27 167 61 166 VSS N_18 L=1.8e-07 W=5e-07 AD=2.45e-13 AS=2.45e-13 PD=1.48e-06 PS=1.48e-06 $X=-58375 $Y=20050 $D=0
M28 168 X_sel<4> 167 VSS N_18 L=1.8e-07 W=5e-07 AD=2.45e-13 AS=2.45e-13 PD=1.48e-06 PS=1.48e-06 $X=-58375 $Y=21510 $D=0
M29 21 63 168 VSS N_18 L=1.8e-07 W=5e-07 AD=2.45e-13 AS=2.45e-13 PD=1.48e-06 PS=1.48e-06 $X=-58375 $Y=22970 $D=0
M30 169 WL_EN VSS VSS N_18 L=1.8e-07 W=5e-07 AD=2.45e-13 AS=2.45e-13 PD=1.48e-06 PS=1.48e-06 $X=-58375 $Y=24610 $D=0
M31 170 X_sel<3> 169 VSS N_18 L=1.8e-07 W=5e-07 AD=2.45e-13 AS=2.45e-13 PD=1.48e-06 PS=1.48e-06 $X=-58375 $Y=26070 $D=0
M32 171 59 170 VSS N_18 L=1.8e-07 W=5e-07 AD=2.45e-13 AS=2.45e-13 PD=1.48e-06 PS=1.48e-06 $X=-58375 $Y=27530 $D=0
M33 22 63 171 VSS N_18 L=1.8e-07 W=5e-07 AD=2.45e-13 AS=2.45e-13 PD=1.48e-06 PS=1.48e-06 $X=-58375 $Y=28990 $D=0
M34 172 WL_EN VSS VSS N_18 L=1.8e-07 W=5e-07 AD=2.45e-13 AS=2.45e-13 PD=1.48e-06 PS=1.48e-06 $X=-58375 $Y=30630 $D=0
M35 173 61 172 VSS N_18 L=1.8e-07 W=5e-07 AD=2.45e-13 AS=2.45e-13 PD=1.48e-06 PS=1.48e-06 $X=-58375 $Y=32090 $D=0
M36 174 59 173 VSS N_18 L=1.8e-07 W=5e-07 AD=2.45e-13 AS=2.45e-13 PD=1.48e-06 PS=1.48e-06 $X=-58375 $Y=33550 $D=0
M37 23 63 174 VSS N_18 L=1.8e-07 W=5e-07 AD=2.45e-13 AS=2.45e-13 PD=1.48e-06 PS=1.48e-06 $X=-58375 $Y=35010 $D=0
M38 175 WL_EN VSS VSS N_18 L=1.8e-07 W=5e-07 AD=2.45e-13 AS=2.45e-13 PD=1.48e-06 PS=1.48e-06 $X=-58375 $Y=37170 $D=0
M39 176 X_sel<0> 175 VSS N_18 L=1.8e-07 W=5e-07 AD=2.45e-13 AS=2.45e-13 PD=1.48e-06 PS=1.48e-06 $X=-58375 $Y=38630 $D=0
M40 177 X_sel<1> 176 VSS N_18 L=1.8e-07 W=5e-07 AD=2.45e-13 AS=2.45e-13 PD=1.48e-06 PS=1.48e-06 $X=-58375 $Y=40090 $D=0
M41 24 X_sel<2> 177 VSS N_18 L=1.8e-07 W=5e-07 AD=2.45e-13 AS=2.45e-13 PD=1.48e-06 PS=1.48e-06 $X=-58375 $Y=41550 $D=0
M42 178 WL_EN VSS VSS N_18 L=1.8e-07 W=5e-07 AD=2.45e-13 AS=2.45e-13 PD=1.48e-06 PS=1.48e-06 $X=-58375 $Y=43190 $D=0
M43 179 62 178 VSS N_18 L=1.8e-07 W=5e-07 AD=2.45e-13 AS=2.45e-13 PD=1.48e-06 PS=1.48e-06 $X=-58375 $Y=44650 $D=0
M44 180 X_sel<1> 179 VSS N_18 L=1.8e-07 W=5e-07 AD=2.45e-13 AS=2.45e-13 PD=1.48e-06 PS=1.48e-06 $X=-58375 $Y=46110 $D=0
M45 25 X_sel<2> 180 VSS N_18 L=1.8e-07 W=5e-07 AD=2.45e-13 AS=2.45e-13 PD=1.48e-06 PS=1.48e-06 $X=-58375 $Y=47570 $D=0
M46 181 WL_EN VSS VSS N_18 L=1.8e-07 W=5e-07 AD=2.45e-13 AS=2.45e-13 PD=1.48e-06 PS=1.48e-06 $X=-58375 $Y=49210 $D=0
M47 182 X_sel<0> 181 VSS N_18 L=1.8e-07 W=5e-07 AD=2.45e-13 AS=2.45e-13 PD=1.48e-06 PS=1.48e-06 $X=-58375 $Y=50670 $D=0
M48 183 60 182 VSS N_18 L=1.8e-07 W=5e-07 AD=2.45e-13 AS=2.45e-13 PD=1.48e-06 PS=1.48e-06 $X=-58375 $Y=52130 $D=0
M49 26 X_sel<2> 183 VSS N_18 L=1.8e-07 W=5e-07 AD=2.45e-13 AS=2.45e-13 PD=1.48e-06 PS=1.48e-06 $X=-58375 $Y=53590 $D=0
M50 184 WL_EN VSS VSS N_18 L=1.8e-07 W=5e-07 AD=2.45e-13 AS=2.45e-13 PD=1.48e-06 PS=1.48e-06 $X=-58375 $Y=55230 $D=0
M51 185 62 184 VSS N_18 L=1.8e-07 W=5e-07 AD=2.45e-13 AS=2.45e-13 PD=1.48e-06 PS=1.48e-06 $X=-58375 $Y=56690 $D=0
M52 186 60 185 VSS N_18 L=1.8e-07 W=5e-07 AD=2.45e-13 AS=2.45e-13 PD=1.48e-06 PS=1.48e-06 $X=-58375 $Y=58150 $D=0
M53 27 X_sel<2> 186 VSS N_18 L=1.8e-07 W=5e-07 AD=2.45e-13 AS=2.45e-13 PD=1.48e-06 PS=1.48e-06 $X=-58375 $Y=59610 $D=0
M54 187 WL_EN VSS VSS N_18 L=1.8e-07 W=5e-07 AD=2.45e-13 AS=2.45e-13 PD=1.48e-06 PS=1.48e-06 $X=-58375 $Y=61250 $D=0
M55 188 X_sel<0> 187 VSS N_18 L=1.8e-07 W=5e-07 AD=2.45e-13 AS=2.45e-13 PD=1.48e-06 PS=1.48e-06 $X=-58375 $Y=62710 $D=0
M56 189 X_sel<1> 188 VSS N_18 L=1.8e-07 W=5e-07 AD=2.45e-13 AS=2.45e-13 PD=1.48e-06 PS=1.48e-06 $X=-58375 $Y=64170 $D=0
M57 28 64 189 VSS N_18 L=1.8e-07 W=5e-07 AD=2.45e-13 AS=2.45e-13 PD=1.48e-06 PS=1.48e-06 $X=-58375 $Y=65630 $D=0
M58 190 WL_EN VSS VSS N_18 L=1.8e-07 W=5e-07 AD=2.45e-13 AS=2.45e-13 PD=1.48e-06 PS=1.48e-06 $X=-58375 $Y=67270 $D=0
M59 191 62 190 VSS N_18 L=1.8e-07 W=5e-07 AD=2.45e-13 AS=2.45e-13 PD=1.48e-06 PS=1.48e-06 $X=-58375 $Y=68730 $D=0
M60 192 X_sel<1> 191 VSS N_18 L=1.8e-07 W=5e-07 AD=2.45e-13 AS=2.45e-13 PD=1.48e-06 PS=1.48e-06 $X=-58375 $Y=70190 $D=0
M61 29 64 192 VSS N_18 L=1.8e-07 W=5e-07 AD=2.45e-13 AS=2.45e-13 PD=1.48e-06 PS=1.48e-06 $X=-58375 $Y=71650 $D=0
M62 193 WL_EN VSS VSS N_18 L=1.8e-07 W=5e-07 AD=2.45e-13 AS=2.45e-13 PD=1.48e-06 PS=1.48e-06 $X=-58375 $Y=73290 $D=0
M63 194 X_sel<0> 193 VSS N_18 L=1.8e-07 W=5e-07 AD=2.45e-13 AS=2.45e-13 PD=1.48e-06 PS=1.48e-06 $X=-58375 $Y=74750 $D=0
M64 195 60 194 VSS N_18 L=1.8e-07 W=5e-07 AD=2.45e-13 AS=2.45e-13 PD=1.48e-06 PS=1.48e-06 $X=-58375 $Y=76210 $D=0
M65 30 64 195 VSS N_18 L=1.8e-07 W=5e-07 AD=2.45e-13 AS=2.45e-13 PD=1.48e-06 PS=1.48e-06 $X=-58375 $Y=77670 $D=0
M66 196 WL_EN VSS VSS N_18 L=1.8e-07 W=5e-07 AD=2.45e-13 AS=2.45e-13 PD=1.48e-06 PS=1.48e-06 $X=-58375 $Y=79310 $D=0
M67 197 62 196 VSS N_18 L=1.8e-07 W=5e-07 AD=2.45e-13 AS=2.45e-13 PD=1.48e-06 PS=1.48e-06 $X=-58375 $Y=80770 $D=0
M68 198 60 197 VSS N_18 L=1.8e-07 W=5e-07 AD=2.45e-13 AS=2.45e-13 PD=1.48e-06 PS=1.48e-06 $X=-58375 $Y=82230 $D=0
M69 31 64 198 VSS N_18 L=1.8e-07 W=5e-07 AD=2.45e-13 AS=2.45e-13 PD=1.48e-06 PS=1.48e-06 $X=-58375 $Y=83690 $D=0
M70 WL<63> 24 VSS VSS N_18 L=1.8e-07 W=5e-07 AD=2.45e-13 AS=2.45e-13 PD=1.48e-06 PS=1.48e-06 $X=-40590 $Y=-13505 $D=0
M71 WL<62> 25 VSS VSS N_18 L=1.8e-07 W=5e-07 AD=2.45e-13 AS=2.45e-13 PD=1.48e-06 PS=1.48e-06 $X=-40590 $Y=-11970 $D=0
M72 WL<61> 26 VSS VSS N_18 L=1.8e-07 W=5e-07 AD=2.45e-13 AS=2.45e-13 PD=1.48e-06 PS=1.48e-06 $X=-40590 $Y=-10435 $D=0
M73 WL<60> 27 VSS VSS N_18 L=1.8e-07 W=5e-07 AD=2.45e-13 AS=2.45e-13 PD=1.48e-06 PS=1.48e-06 $X=-40590 $Y=-8900 $D=0
M74 WL<59> 28 VSS VSS N_18 L=1.8e-07 W=5e-07 AD=2.45e-13 AS=2.45e-13 PD=1.48e-06 PS=1.48e-06 $X=-40590 $Y=-7365 $D=0
M75 WL<58> 29 VSS VSS N_18 L=1.8e-07 W=5e-07 AD=2.45e-13 AS=2.45e-13 PD=1.48e-06 PS=1.48e-06 $X=-40590 $Y=-5830 $D=0
M76 WL<57> 30 VSS VSS N_18 L=1.8e-07 W=5e-07 AD=2.45e-13 AS=2.45e-13 PD=1.48e-06 PS=1.48e-06 $X=-40590 $Y=-4295 $D=0
M77 WL<56> 31 VSS VSS N_18 L=1.8e-07 W=5e-07 AD=2.45e-13 AS=2.45e-13 PD=1.48e-06 PS=1.48e-06 $X=-40590 $Y=-2760 $D=0
M78 WL<55> 24 VSS VSS N_18 L=1.8e-07 W=5e-07 AD=2.45e-13 AS=2.45e-13 PD=1.48e-06 PS=1.48e-06 $X=-40590 $Y=-1225 $D=0
M79 WL<54> 25 VSS VSS N_18 L=1.8e-07 W=5e-07 AD=2.45e-13 AS=2.45e-13 PD=1.48e-06 PS=1.48e-06 $X=-40590 $Y=310 $D=0
M80 WL<53> 26 VSS VSS N_18 L=1.8e-07 W=5e-07 AD=2.45e-13 AS=2.45e-13 PD=1.48e-06 PS=1.48e-06 $X=-40590 $Y=1845 $D=0
M81 WL<52> 27 VSS VSS N_18 L=1.8e-07 W=5e-07 AD=2.45e-13 AS=2.45e-13 PD=1.48e-06 PS=1.48e-06 $X=-40590 $Y=3380 $D=0
M82 WL<51> 28 VSS VSS N_18 L=1.8e-07 W=5e-07 AD=2.45e-13 AS=2.45e-13 PD=1.48e-06 PS=1.48e-06 $X=-40590 $Y=4915 $D=0
M83 WL<50> 29 VSS VSS N_18 L=1.8e-07 W=5e-07 AD=2.45e-13 AS=2.45e-13 PD=1.48e-06 PS=1.48e-06 $X=-40590 $Y=6450 $D=0
M84 WL<49> 30 VSS VSS N_18 L=1.8e-07 W=5e-07 AD=2.45e-13 AS=2.45e-13 PD=1.48e-06 PS=1.48e-06 $X=-40590 $Y=7985 $D=0
M85 WL<48> 31 VSS VSS N_18 L=1.8e-07 W=5e-07 AD=2.45e-13 AS=2.45e-13 PD=1.48e-06 PS=1.48e-06 $X=-40590 $Y=9520 $D=0
M86 WL<47> 24 VSS VSS N_18 L=1.8e-07 W=5e-07 AD=2.45e-13 AS=2.45e-13 PD=1.48e-06 PS=1.48e-06 $X=-40590 $Y=11475 $D=0
M87 WL<46> 25 VSS VSS N_18 L=1.8e-07 W=5e-07 AD=2.45e-13 AS=2.45e-13 PD=1.48e-06 PS=1.48e-06 $X=-40590 $Y=13010 $D=0
M88 WL<45> 26 VSS VSS N_18 L=1.8e-07 W=5e-07 AD=2.45e-13 AS=2.45e-13 PD=1.48e-06 PS=1.48e-06 $X=-40590 $Y=14545 $D=0
M89 WL<44> 27 VSS VSS N_18 L=1.8e-07 W=5e-07 AD=2.45e-13 AS=2.45e-13 PD=1.48e-06 PS=1.48e-06 $X=-40590 $Y=16080 $D=0
M90 WL<43> 28 VSS VSS N_18 L=1.8e-07 W=5e-07 AD=2.45e-13 AS=2.45e-13 PD=1.48e-06 PS=1.48e-06 $X=-40590 $Y=17615 $D=0
M91 WL<42> 29 VSS VSS N_18 L=1.8e-07 W=5e-07 AD=2.45e-13 AS=2.45e-13 PD=1.48e-06 PS=1.48e-06 $X=-40590 $Y=19150 $D=0
M92 WL<41> 30 VSS VSS N_18 L=1.8e-07 W=5e-07 AD=2.45e-13 AS=2.45e-13 PD=1.48e-06 PS=1.48e-06 $X=-40590 $Y=20685 $D=0
M93 WL<40> 31 VSS VSS N_18 L=1.8e-07 W=5e-07 AD=2.45e-13 AS=2.45e-13 PD=1.48e-06 PS=1.48e-06 $X=-40590 $Y=22220 $D=0
M94 WL<39> 24 VSS VSS N_18 L=1.8e-07 W=5e-07 AD=2.45e-13 AS=2.45e-13 PD=1.48e-06 PS=1.48e-06 $X=-40590 $Y=23755 $D=0
M95 WL<38> 25 VSS VSS N_18 L=1.8e-07 W=5e-07 AD=2.45e-13 AS=2.45e-13 PD=1.48e-06 PS=1.48e-06 $X=-40590 $Y=25290 $D=0
M96 WL<37> 26 VSS VSS N_18 L=1.8e-07 W=5e-07 AD=2.45e-13 AS=2.45e-13 PD=1.48e-06 PS=1.48e-06 $X=-40590 $Y=26825 $D=0
M97 WL<36> 27 VSS VSS N_18 L=1.8e-07 W=5e-07 AD=2.45e-13 AS=2.45e-13 PD=1.48e-06 PS=1.48e-06 $X=-40590 $Y=28360 $D=0
M98 WL<35> 28 VSS VSS N_18 L=1.8e-07 W=5e-07 AD=2.45e-13 AS=2.45e-13 PD=1.48e-06 PS=1.48e-06 $X=-40590 $Y=29895 $D=0
M99 WL<34> 29 VSS VSS N_18 L=1.8e-07 W=5e-07 AD=2.45e-13 AS=2.45e-13 PD=1.48e-06 PS=1.48e-06 $X=-40590 $Y=31430 $D=0
M100 WL<33> 30 VSS VSS N_18 L=1.8e-07 W=5e-07 AD=2.45e-13 AS=2.45e-13 PD=1.48e-06 PS=1.48e-06 $X=-40590 $Y=32965 $D=0
M101 WL<32> 31 VSS VSS N_18 L=1.8e-07 W=5e-07 AD=2.45e-13 AS=2.45e-13 PD=1.48e-06 PS=1.48e-06 $X=-40590 $Y=34500 $D=0
M102 WL<31> 24 VSS VSS N_18 L=1.8e-07 W=5e-07 AD=2.45e-13 AS=2.45e-13 PD=1.48e-06 PS=1.48e-06 $X=-40590 $Y=36455 $D=0
M103 WL<30> 25 VSS VSS N_18 L=1.8e-07 W=5e-07 AD=2.45e-13 AS=2.45e-13 PD=1.48e-06 PS=1.48e-06 $X=-40590 $Y=37990 $D=0
M104 WL<29> 26 VSS VSS N_18 L=1.8e-07 W=5e-07 AD=2.45e-13 AS=2.45e-13 PD=1.48e-06 PS=1.48e-06 $X=-40590 $Y=39525 $D=0
M105 WL<28> 27 VSS VSS N_18 L=1.8e-07 W=5e-07 AD=2.45e-13 AS=2.45e-13 PD=1.48e-06 PS=1.48e-06 $X=-40590 $Y=41060 $D=0
M106 WL<27> 28 VSS VSS N_18 L=1.8e-07 W=5e-07 AD=2.45e-13 AS=2.45e-13 PD=1.48e-06 PS=1.48e-06 $X=-40590 $Y=42595 $D=0
M107 WL<26> 29 VSS VSS N_18 L=1.8e-07 W=5e-07 AD=2.45e-13 AS=2.45e-13 PD=1.48e-06 PS=1.48e-06 $X=-40590 $Y=44130 $D=0
M108 WL<25> 30 VSS VSS N_18 L=1.8e-07 W=5e-07 AD=2.45e-13 AS=2.45e-13 PD=1.48e-06 PS=1.48e-06 $X=-40590 $Y=45665 $D=0
M109 WL<24> 31 VSS VSS N_18 L=1.8e-07 W=5e-07 AD=2.45e-13 AS=2.45e-13 PD=1.48e-06 PS=1.48e-06 $X=-40590 $Y=47200 $D=0
M110 WL<23> 24 VSS VSS N_18 L=1.8e-07 W=5e-07 AD=2.45e-13 AS=2.45e-13 PD=1.48e-06 PS=1.48e-06 $X=-40590 $Y=48735 $D=0
M111 WL<22> 25 VSS VSS N_18 L=1.8e-07 W=5e-07 AD=2.45e-13 AS=2.45e-13 PD=1.48e-06 PS=1.48e-06 $X=-40590 $Y=50270 $D=0
M112 WL<21> 26 VSS VSS N_18 L=1.8e-07 W=5e-07 AD=2.45e-13 AS=2.45e-13 PD=1.48e-06 PS=1.48e-06 $X=-40590 $Y=51805 $D=0
M113 WL<20> 27 VSS VSS N_18 L=1.8e-07 W=5e-07 AD=2.45e-13 AS=2.45e-13 PD=1.48e-06 PS=1.48e-06 $X=-40590 $Y=53340 $D=0
M114 WL<19> 28 VSS VSS N_18 L=1.8e-07 W=5e-07 AD=2.45e-13 AS=2.45e-13 PD=1.48e-06 PS=1.48e-06 $X=-40590 $Y=54875 $D=0
M115 WL<18> 29 VSS VSS N_18 L=1.8e-07 W=5e-07 AD=2.45e-13 AS=2.45e-13 PD=1.48e-06 PS=1.48e-06 $X=-40590 $Y=56410 $D=0
M116 WL<17> 30 VSS VSS N_18 L=1.8e-07 W=5e-07 AD=2.45e-13 AS=2.45e-13 PD=1.48e-06 PS=1.48e-06 $X=-40590 $Y=57945 $D=0
M117 WL<16> 31 VSS VSS N_18 L=1.8e-07 W=5e-07 AD=2.45e-13 AS=2.45e-13 PD=1.48e-06 PS=1.48e-06 $X=-40590 $Y=59480 $D=0
M118 WL<15> 24 VSS VSS N_18 L=1.8e-07 W=5e-07 AD=2.45e-13 AS=2.45e-13 PD=1.48e-06 PS=1.48e-06 $X=-40590 $Y=61435 $D=0
M119 WL<14> 25 VSS VSS N_18 L=1.8e-07 W=5e-07 AD=2.45e-13 AS=2.45e-13 PD=1.48e-06 PS=1.48e-06 $X=-40590 $Y=62970 $D=0
M120 WL<13> 26 VSS VSS N_18 L=1.8e-07 W=5e-07 AD=2.45e-13 AS=2.45e-13 PD=1.48e-06 PS=1.48e-06 $X=-40590 $Y=64505 $D=0
M121 WL<12> 27 VSS VSS N_18 L=1.8e-07 W=5e-07 AD=2.45e-13 AS=2.45e-13 PD=1.48e-06 PS=1.48e-06 $X=-40590 $Y=66040 $D=0
M122 WL<11> 28 VSS VSS N_18 L=1.8e-07 W=5e-07 AD=2.45e-13 AS=2.45e-13 PD=1.48e-06 PS=1.48e-06 $X=-40590 $Y=67575 $D=0
M123 WL<10> 29 VSS VSS N_18 L=1.8e-07 W=5e-07 AD=2.45e-13 AS=2.45e-13 PD=1.48e-06 PS=1.48e-06 $X=-40590 $Y=69110 $D=0
M124 WL<9> 30 VSS VSS N_18 L=1.8e-07 W=5e-07 AD=2.45e-13 AS=2.45e-13 PD=1.48e-06 PS=1.48e-06 $X=-40590 $Y=70645 $D=0
M125 WL<8> 31 VSS VSS N_18 L=1.8e-07 W=5e-07 AD=2.45e-13 AS=2.45e-13 PD=1.48e-06 PS=1.48e-06 $X=-40590 $Y=72180 $D=0
M126 WL<7> 24 VSS VSS N_18 L=1.8e-07 W=5e-07 AD=2.45e-13 AS=2.45e-13 PD=1.48e-06 PS=1.48e-06 $X=-40590 $Y=73715 $D=0
M127 WL<6> 25 VSS VSS N_18 L=1.8e-07 W=5e-07 AD=2.45e-13 AS=2.45e-13 PD=1.48e-06 PS=1.48e-06 $X=-40590 $Y=75250 $D=0
M128 WL<5> 26 VSS VSS N_18 L=1.8e-07 W=5e-07 AD=2.45e-13 AS=2.45e-13 PD=1.48e-06 PS=1.48e-06 $X=-40590 $Y=76785 $D=0
M129 WL<4> 27 VSS VSS N_18 L=1.8e-07 W=5e-07 AD=2.45e-13 AS=2.45e-13 PD=1.48e-06 PS=1.48e-06 $X=-40590 $Y=78320 $D=0
M130 WL<3> 28 VSS VSS N_18 L=1.8e-07 W=5e-07 AD=2.45e-13 AS=2.45e-13 PD=1.48e-06 PS=1.48e-06 $X=-40590 $Y=79855 $D=0
M131 WL<2> 29 VSS VSS N_18 L=1.8e-07 W=5e-07 AD=2.45e-13 AS=2.45e-13 PD=1.48e-06 PS=1.48e-06 $X=-40590 $Y=81390 $D=0
M132 WL<1> 30 VSS VSS N_18 L=1.8e-07 W=5e-07 AD=2.45e-13 AS=2.45e-13 PD=1.48e-06 PS=1.48e-06 $X=-40590 $Y=82925 $D=0
M133 WL<0> 31 VSS VSS N_18 L=1.8e-07 W=5e-07 AD=2.45e-13 AS=2.45e-13 PD=1.48e-06 PS=1.48e-06 $X=-40590 $Y=84460 $D=0
M134 WL<63> 16 VSS VSS N_18 L=1.8e-07 W=5e-07 AD=2.45e-13 AS=2.45e-13 PD=1.48e-06 PS=1.48e-06 $X=-39440 $Y=-13505 $D=0
M135 WL<62> 16 VSS VSS N_18 L=1.8e-07 W=5e-07 AD=2.45e-13 AS=2.45e-13 PD=1.48e-06 PS=1.48e-06 $X=-39440 $Y=-11970 $D=0
M136 WL<61> 16 VSS VSS N_18 L=1.8e-07 W=5e-07 AD=2.45e-13 AS=2.45e-13 PD=1.48e-06 PS=1.48e-06 $X=-39440 $Y=-10435 $D=0
M137 WL<60> 16 VSS VSS N_18 L=1.8e-07 W=5e-07 AD=2.45e-13 AS=2.45e-13 PD=1.48e-06 PS=1.48e-06 $X=-39440 $Y=-8900 $D=0