* File: FinalProject2.pex.spi.pex
* Created: Sun Jan 16 19:19:52 2022
* Program "Calibre xRC"
* Version "v2021.1_33.19"
* Nominal Temperature: 27C
* Circuit Temperature: 27C
* 
.subckt PM_FINALPROJECT%XI27/NET096 23 28 33 34 38 43
c0 66 0 0.138331f
c1 65 0 0.116154f
c2 62 0 0.0277909f
c3 58 0 0.0341738f
c4 57 0 0.172982f
c5 54 0 0.038383f
c6 45 0 0.00315755f
c7 41 0 0.139586f
c8 40 0 0.00154851f
c9 31 0 0.0999047f
c10 28 0 6.94513e-19
c11 26 0 0.115118f
c12 17 0 0.0864256f
c13 16 0 0.0163989f
c14 14 0 0.0278226f
c15 12 0 0.177232f
c16 11 0 0.0293088f
c17 9 0 0.0331066f
c18 6 0 0.0999407f
c19 4 0 0.115503f
c20 3 0 0.0349387f
r21 65 66 8
r22 57 58 8
r23 45 65 16.3327
r24 43 45 4.59
r25 41 62 8
r26 40 41 16.3327
r27 38 40 4.59
r28 36 57 16.3327
r29 34 36 4.608
r30 33 36 4.572
r31 31 54 8
r32 30 31 16.3327
r33 28 30 4.572
r34 26 50 8
r35 25 26 16.3327
r36 23 25 4.572
r37 17 66 0.316574
r38 15 62 0.0948519
r39 15 16 0.0275239
r40 13 58 0.108093
r41 13 14 0.00715299
r42 12 50 0.174296
r43 10 54 0.0936482
r44 10 11 0.0275239
r45 9 17 0.0364548
r46 8 16 0.0275239
r47 8 9 0.0878704
r48 7 14 0.0275239
r49 6 16 0.00715299
r50 6 7 0.263611
r51 5 11 0.00715299
r52 4 14 0.0275239
r53 4 5 0.26963
r54 3 12 0.0424285
r55 2 11 0.0275239
r56 2 3 0.0866667
.ends

.subckt PM_FINALPROJECT%XI27/NET093 2 7
c0 10 0 0.181974f
c1 7 0 0.00996972f
c2 4 0 0.0147199f
r3 9 10 16.3327
r4 7 9 4.572
r5 5 10 0.19963
r6 4 5 16.3327
r7 2 4 4.608
.ends

.subckt PM_FINALPROJECT%XI27/NET089 2 7
c0 10 0 0.22744f
c1 7 0 0.00914496f
c2 4 0 0.0169064f
r3 9 10 16.3327
r4 7 9 4.59
r5 5 10 0.19963
r6 4 5 16.3327
r7 2 4 4.59
.ends

.subckt PM_FINALPROJECT%XI28/NET096 23 28 33 34 38 43
c0 66 0 0.129484f
c1 65 0 0.113802f
c2 62 0 0.0328565f
c3 58 0 0.0375799f
c4 57 0 0.172987f
c5 54 0 0.0401361f
c6 45 0 0.00315755f
c7 41 0 0.144642f
c8 40 0 0.00154851f
c9 31 0 0.106414f
c10 28 0 6.94513e-19
c11 26 0 0.115941f
c12 17 0 0.0864256f
c13 16 0 0.0163992f
c14 14 0 0.0278226f
c15 12 0 0.17823f
c16 11 0 0.0328527f
c17 9 0 0.0331066f
c18 6 0 0.105745f
c19 4 0 0.121428f
c20 3 0 0.0351667f
r21 65 66 8
r22 57 58 8
r23 45 65 16.3327
r24 43 45 4.59
r25 41 62 8
r26 40 41 16.3327
r27 38 40 4.59
r28 36 57 16.3327
r29 34 36 4.608
r30 33 36 4.572
r31 31 54 8
r32 30 31 16.3327
r33 28 30 4.572
r34 26 50 8
r35 25 26 16.3327
r36 23 25 4.572
r37 17 66 0.316574
r38 15 62 0.0948519
r39 15 16 0.0275239
r40 13 58 0.108093
r41 13 14 0.00715299
r42 12 50 0.174296
r43 10 54 0.0936482
r44 10 11 0.0275239
r45 9 17 0.0364548
r46 8 16 0.0275239
r47 8 9 0.0878704
r48 7 14 0.0275239
r49 6 16 0.00715299
r50 6 7 0.263611
r51 5 11 0.00715299
r52 4 14 0.0275239
r53 4 5 0.26963
r54 3 12 0.0424285
r55 2 11 0.0275239
r56 2 3 0.0866667
.ends

.subckt PM_FINALPROJECT%XI28/NET093 2 7
c0 10 0 0.183407f
c1 7 0 0.00996972f
c2 4 0 0.0179217f
r3 9 10 16.3327
r4 7 9 4.572
r5 5 10 0.19963
r6 4 5 16.3327
r7 2 4 4.608
.ends

.subckt PM_FINALPROJECT%XI28/NET089 2 7
c0 10 0 0.227336f
c1 7 0 0.00980745f
c2 4 0 0.0169064f
r3 9 10 16.3327
r4 7 9 4.59
r5 5 10 0.19963
r6 4 5 16.3327
r7 2 4 4.59
.ends

.subckt PM_FINALPROJECT%XI29/XI42/NET067 9 13 40 47 54
c0 86 0 0.048933f
c1 85 0 0.216096f
c2 83 0 0.075759f
c3 71 0 0.0780459f
c4 52 0 0.0874549f
c5 45 0 0.164993f
c6 42 0 0.00570167f
c7 34 0 0.139226f
c8 33 0 0.147077f
c9 29 0 0.170033f
c10 28 0 0.174937f
c11 25 0 0.332956f
c12 22 0 0.14451f
c13 15 0 0.0347961f
c14 13 0 0.139128f
c15 9 0 0.103012f
c16 2 0 0.0774702f
r17 69 86 0.0487198
r18 69 85 0.0461131
r19 61 83 0.0461131
r20 57 85 0.364259
r21 56 57 16.3327
r22 54 56 4.59
r23 52 86 0.0798
r24 49 52 8.16635
r25 49 69 16.3327
r26 47 49 1.53
r27 45 83 0.0738889
r28 42 45 8.16635
r29 42 61 16.3327
r30 40 42 1.53
r31 38 71 0.0461636
r32 38 69 8
r33 37 38 8
r34 34 61 8
r35 33 37 0.352685
r36 33 34 8
r37 27 29 0.0163276
r38 27 28 0.302037
r39 25 71 0.465833
r40 24 25 4
r41 22 28 0.039111
r42 22 24 0.197037
r43 11 15 7.73958
r44 11 13 55.25
r45 7 15 7.73958
r46 7 9 31.5
r47 5 29 0.104186
r48 4 5 13.2552
r49 2 15 1.29764
r50 2 4 5.24681
.ends

.subckt PM_FINALPROJECT%XI29/XI42/NET44 2 7
c0 9 0 0.0090394f
c1 5 0 0.166712f
r2 9 10 16.3327
r3 7 9 4.59
r4 5 10 0.19963
r5 4 5 16.3327
r6 2 4 4.59
.ends

.subckt PM_FINALPROJECT%XI29/XI43/NET067 9 13 40 47 54
c0 86 0 0.0529277f
c1 85 0 0.224814f
c2 83 0 0.075759f
c3 71 0 0.0781859f
c4 52 0 0.0948114f
c5 45 0 0.164943f
c6 42 0 0.00570167f
c7 34 0 0.139023f
c8 33 0 0.122243f
c9 29 0 0.168024f
c10 28 0 0.169172f
c11 25 0 0.333455f
c12 22 0 0.151749f
c13 15 0 0.0347961f
c14 13 0 0.139793f
c15 9 0 0.100791f
c16 2 0 0.0771886f
r17 69 86 0.0487198
r18 69 85 0.0461131
r19 61 83 0.0461131
r20 57 85 0.364259
r21 56 57 16.3327
r22 54 56 4.59
r23 52 86 0.0798
r24 49 52 8.16635
r25 49 69 16.3327
r26 47 49 1.53
r27 45 83 0.0738889
r28 42 45 8.16635
r29 42 61 16.3327
r30 40 42 1.53
r31 38 71 0.0461636
r32 38 69 8
r33 37 38 8
r34 34 61 8
r35 33 37 0.352685
r36 33 34 8
r37 27 29 0.0163276
r38 27 28 0.302037
r39 25 71 0.465833
r40 24 25 4
r41 22 28 0.039111
r42 22 24 0.197037
r43 11 15 7.73958
r44 11 13 55.25
r45 7 15 7.73958
r46 7 9 31.5
r47 5 29 0.104186
r48 4 5 13.2552
r49 2 15 1.29764
r50 2 4 5.24681
.ends

.subckt PM_FINALPROJECT%XI29/XI43/NET44 2 7
c0 9 0 0.00905842f
c1 5 0 0.166725f
r2 9 10 16.3327
r3 7 9 4.59
r4 5 10 0.19963
r5 4 5 16.3327
r6 2 4 4.59
.ends

.subckt PM_FINALPROJECT%XI29/NET094 4 9 26 30
c0 32 0 0.0376597f
c1 30 0 0.165426f
c2 26 0 0.110843f
c3 22 0 0.167163f
c4 19 0 0.0792035f
c5 12 0 0.513625f
r6 37 43 0.0141465
r7 36 43 0.0141465
r8 28 32 7.73958
r9 28 30 55.25
r10 24 32 7.73958
r11 24 26 31.5
r12 22 43 0.132702
r13 21 22 13.2552
r14 19 32 1.29764
r15 19 21 5.24681
r16 12 36 0.1258
r17 11 12 16.3327
r18 9 11 4.59
r19 7 37 0.1632
r20 6 7 8.16635
r21 4 6 1.53
.ends

.subckt PM_FINALPROJECT%XI29/XI51/NET14 4 9 30 34
c0 36 0 0.0376597f
c1 34 0 0.165426f
c2 30 0 0.110843f
c3 26 0 0.167147f
c4 23 0 0.0792035f
c5 12 0 0.516784f
r6 32 36 7.73958
r7 32 34 55.25
r8 28 36 7.73958
r9 28 30 31.5
r10 26 43 0.132702
r11 25 26 13.2552
r12 23 36 1.29764
r13 23 25 5.24681
r14 21 43 0.0141465
r15 20 43 0.0141465
r16 12 20 0.1258
r17 11 12 16.3327
r18 9 11 4.59
r19 7 21 0.1632
r20 6 7 8.16635
r21 4 6 1.53
.ends

.subckt PM_FINALPROJECT%XI29/XI38/NET14 4 9 26 30
c0 32 0 0.0376597f
c1 30 0 0.168381f
c2 26 0 0.11342f
c3 22 0 0.173535f
c4 19 0 0.0827356f
c5 12 0 0.525447f
r6 37 43 0.0141465
r7 36 43 0.0141465
r8 28 32 7.73958
r9 28 30 55.25
r10 24 32 7.73958
r11 24 26 31.5
r12 22 43 0.132702
r13 21 22 13.2552
r14 19 32 1.29764
r15 19 21 5.24681
r16 12 36 0.1258
r17 11 12 16.3327
r18 9 11 4.59
r19 7 37 0.1632
r20 6 7 8.16635
r21 4 6 1.53
.ends

.subckt PM_FINALPROJECT%XI29/NET109 4 9 30 34
c0 36 0 0.0376597f
c1 34 0 0.167754f
c2 30 0 0.112796f
c3 26 0 0.172892f
c4 23 0 0.082787f
c5 12 0 0.541472f
r6 32 36 7.73958
r7 32 34 55.25
r8 28 36 7.73958
r9 28 30 31.5
r10 26 43 0.132702
r11 25 26 13.2552
r12 23 36 1.29764
r13 23 25 5.24681
r14 21 43 0.0141465
r15 20 43 0.0141465
r16 12 20 0.1258
r17 11 12 16.3327
r18 9 11 4.59
r19 7 21 0.1632
r20 6 7 8.16635
r21 4 6 1.53
.ends

.subckt PM_FINALPROJECT%XI29/NET0110 4 9 26 30
c0 32 0 0.0376597f
c1 30 0 0.165426f
c2 26 0 0.110843f
c3 22 0 0.166977f
c4 19 0 0.0792035f
c5 12 0 0.516784f
r6 37 43 0.0141465
r7 36 43 0.0141465
r8 28 32 7.73958
r9 28 30 55.25
r10 24 32 7.73958
r11 24 26 31.5
r12 22 43 0.132702
r13 21 22 13.2552
r14 19 32 1.29764
r15 19 21 5.24681
r16 12 36 0.1258
r17 11 12 16.3327
r18 9 11 4.59
r19 7 37 0.1632
r20 6 7 8.16635
r21 4 6 1.53
.ends

.subckt PM_FINALPROJECT%XI29/XI53/NET14 4 9 30 34
c0 36 0 0.0376597f
c1 34 0 0.165426f
c2 30 0 0.110843f
c3 26 0 0.166977f
c4 23 0 0.0792035f
c5 12 0 0.516784f
r6 32 36 7.73958
r7 32 34 55.25
r8 28 36 7.73958
r9 28 30 31.5
r10 26 43 0.132702
r11 25 26 13.2552
r12 23 36 1.29764
r13 23 25 5.24681
r14 21 43 0.0141465
r15 20 43 0.0141465
r16 12 20 0.1258
r17 11 12 16.3327
r18 9 11 4.59
r19 7 21 0.1632
r20 6 7 8.16635
r21 4 6 1.53
.ends

.subckt PM_FINALPROJECT%XI29/XI40/NET14 4 9 26 30
c0 32 0 0.0376597f
c1 30 0 0.165426f
c2 26 0 0.110349f
c3 22 0 0.16596f
c4 19 0 0.0791858f
c5 12 0 0.529002f
r6 37 43 0.0141465
r7 36 43 0.0141465
r8 28 32 7.73958
r9 28 30 55.25
r10 24 32 7.73958
r11 24 26 31.5
r12 22 43 0.132702
r13 21 22 13.2552
r14 19 32 1.29764
r15 19 21 5.24681
r16 12 36 0.1258
r17 11 12 16.3327
r18 9 11 4.59
r19 7 37 0.1632
r20 6 7 8.16635
r21 4 6 1.53
.ends

.subckt PM_FINALPROJECT%XI29/NET113 4 9 30 34
c0 36 0 0.0376597f
c1 34 0 0.165426f
c2 30 0 0.110349f
c3 26 0 0.16596f
c4 23 0 0.0791858f
c5 12 0 0.510291f
r6 32 36 7.73958
r7 32 34 55.25
r8 28 36 7.73958
r9 28 30 31.5
r10 26 43 0.132702
r11 25 26 13.2552
r12 23 36 1.29764
r13 23 25 5.24681
r14 21 43 0.0141465
r15 20 43 0.0141465
r16 12 20 0.1258
r17 11 12 16.3327
r18 9 11 4.59
r19 7 21 0.1632
r20 6 7 8.16635
r21 4 6 1.53
.ends

.subckt PM_FINALPROJECT%XI29/NET0142 4 9 26 30
c0 32 0 0.0376597f
c1 30 0 0.165426f
c2 26 0 0.110843f
c3 22 0 0.166977f
c4 19 0 0.0792035f
c5 12 0 0.516784f
r6 37 43 0.0141465
r7 36 43 0.0141465
r8 28 32 7.73958
r9 28 30 55.25
r10 24 32 7.73958
r11 24 26 31.5
r12 22 43 0.132702
r13 21 22 13.2552
r14 19 32 1.29764
r15 19 21 5.24681
r16 12 36 0.1258
r17 11 12 16.3327
r18 9 11 4.59
r19 7 37 0.1632
r20 6 7 8.16635
r21 4 6 1.53
.ends

.subckt PM_FINALPROJECT%XI29/XI55/NET14 4 9 30 34
c0 36 0 0.0376597f
c1 34 0 0.165426f
c2 30 0 0.110843f
c3 26 0 0.166977f
c4 23 0 0.0792035f
c5 12 0 0.516784f
r6 32 36 7.73958
r7 32 34 55.25
r8 28 36 7.73958
r9 28 30 31.5
r10 26 43 0.132702
r11 25 26 13.2552
r12 23 36 1.29764
r13 23 25 5.24681
r14 21 43 0.0141465
r15 20 43 0.0141465
r16 12 20 0.1258
r17 11 12 16.3327
r18 9 11 4.59
r19 7 21 0.1632
r20 6 7 8.16635
r21 4 6 1.53
.ends

.subckt PM_FINALPROJECT%XI29/XI47/NET14 4 9 26 30
c0 32 0 0.0376597f
c1 30 0 0.165426f
c2 26 0 0.110349f
c3 22 0 0.16596f
c4 19 0 0.0791858f
c5 12 0 0.507182f
r6 37 43 0.0141465
r7 36 43 0.0141465
r8 28 32 7.73958
r9 28 30 55.25
r10 24 32 7.73958
r11 24 26 31.5
r12 22 43 0.132702
r13 21 22 13.2552
r14 19 32 1.29764
r15 19 21 5.24681
r16 12 36 0.1258
r17 11 12 16.3327
r18 9 11 4.59
r19 7 37 0.1632
r20 6 7 8.16635
r21 4 6 1.53
.ends

.subckt PM_FINALPROJECT%XI29/NET0126 4 9 30 34
c0 36 0 0.0376597f
c1 34 0 0.165426f
c2 30 0 0.110349f
c3 26 0 0.16596f
c4 23 0 0.0791858f
c5 12 0 0.507182f
r6 32 36 7.73958
r7 32 34 55.25
r8 28 36 7.73958
r9 28 30 31.5
r10 26 43 0.132702
r11 25 26 13.2552
r12 23 36 1.29764
r13 23 25 5.24681
r14 21 43 0.0141465
r15 20 43 0.0141465
r16 12 20 0.1258
r17 11 12 16.3327
r18 9 11 4.59
r19 7 21 0.1632
r20 6 7 8.16635
r21 4 6 1.53
.ends

.subckt PM_FINALPROJECT%XI29/NET0118 4 9 26 30
c0 32 0 0.0376597f
c1 30 0 0.165426f
c2 26 0 0.110843f
c3 22 0 0.167501f
c4 19 0 0.0792035f
c5 12 0 0.517804f
r6 37 43 0.0141465
r7 36 43 0.0141465
r8 28 32 7.73958
r9 28 30 55.25
r10 24 32 7.73958
r11 24 26 31.5
r12 22 43 0.132702
r13 21 22 13.2552
r14 19 32 1.29764
r15 19 21 5.24681
r16 12 36 0.1258
r17 11 12 16.3327
r18 9 11 4.59
r19 7 37 0.1632
r20 6 7 8.16635
r21 4 6 1.53
.ends

.subckt PM_FINALPROJECT%XI29/XI57/NET14 4 9 30 34
c0 36 0 0.0397663f
c1 34 0 0.172386f
c2 30 0 0.113804f
c3 26 0 0.1706f
c4 23 0 0.0792035f
c5 12 0 0.524148f
r6 32 36 7.73958
r7 32 34 55.25
r8 28 36 7.73958
r9 28 30 31.5
r10 26 43 0.132702
r11 25 26 13.2552
r12 23 36 1.29764
r13 23 25 5.24681
r14 21 43 0.0141465
r15 20 43 0.0141465
r16 12 20 0.1258
r17 11 12 16.3327
r18 9 11 4.59
r19 7 21 0.1632
r20 6 7 8.16635
r21 4 6 1.53
.ends

.subckt PM_FINALPROJECT%XI29/NET0106 4 9 26 30
c0 32 0 0.0376597f
c1 30 0 0.165426f
c2 26 0 0.110843f
c3 22 0 0.168891f
c4 19 0 0.0792035f
c5 12 0 0.519035f
r6 37 43 0.0141465
r7 36 43 0.0141465
r8 28 32 7.73958
r9 28 30 55.25
r10 24 32 7.73958
r11 24 26 31.5
r12 22 43 0.132702
r13 21 22 13.2552
r14 19 32 1.29764
r15 19 21 5.24681
r16 12 36 0.1258
r17 11 12 16.3327
r18 9 11 4.59
r19 7 37 0.1632
r20 6 7 8.16635
r21 4 6 1.53
.ends

.subckt PM_FINALPROJECT%XI29/XI59/NET14 4 9 30 34
c0 36 0 0.0376597f
c1 34 0 0.165426f
c2 30 0 0.110843f
c3 26 0 0.168891f
c4 23 0 0.0792035f
c5 12 0 0.519035f
r6 32 36 7.73958
r7 32 34 55.25
r8 28 36 7.73958
r9 28 30 31.5
r10 26 43 0.132702
r11 25 26 13.2552
r12 23 36 1.29764
r13 23 25 5.24681
r14 21 43 0.0141465
r15 20 43 0.0141465
r16 12 20 0.1258
r17 11 12 16.3327
r18 9 11 4.59
r19 7 21 0.1632
r20 6 7 8.16635
r21 4 6 1.53
.ends

.subckt PM_FINALPROJECT%XI29/NET0 4 9 26 30
c0 32 0 0.0376597f
c1 30 0 0.165426f
c2 26 0 0.110843f
c3 22 0 0.168892f
c4 19 0 0.0792035f
c5 12 0 0.519036f
r6 37 43 0.0141465
r7 36 43 0.0141465
r8 28 32 7.73958
r9 28 30 55.25
r10 24 32 7.73958
r11 24 26 31.5
r12 22 43 0.132702
r13 21 22 13.2552
r14 19 32 1.29764
r15 19 21 5.24681
r16 12 36 0.1258
r17 11 12 16.3327
r18 9 11 4.59
r19 7 37 0.1632
r20 6 7 8.16635
r21 4 6 1.53
.ends

.subckt PM_FINALPROJECT%XI29/XI61/NET14 4 9 30 34
c0 36 0 0.0376597f
c1 34 0 0.165426f
c2 30 0 0.110843f
c3 26 0 0.169352f
c4 23 0 0.0792035f
c5 12 0 0.519037f
r6 32 36 7.73958
r7 32 34 55.25
r8 28 36 7.73958
r9 28 30 31.5
r10 26 43 0.132702
r11 25 26 13.2552
r12 23 36 1.29764
r13 23 25 5.24681
r14 21 43 0.0141465
r15 20 43 0.0141465
r16 12 20 0.1258
r17 11 12 16.3327
r18 9 11 4.59
r19 7 21 0.1632
r20 6 7 8.16635
r21 4 6 1.53
.ends

.subckt PM_FINALPROJECT%XI26/NET0158 6 11 175 178 181 184 187 190 193 196
c0 196 0 0.159843f
c1 193 0 0.170846f
c2 190 0 0.170823f
c3 187 0 0.169916f
c4 169 0 0.077192f
c5 168 0 0.0822668f
c6 167 0 0.0833799f
c7 166 0 0.0827037f
c8 139 0 0.1081f
c9 129 0 8.74556f
c10 121 0 0.106936f
c11 115 0 0.0151741f
c12 114 0 0.413684f
c13 112 0 0.0151769f
c14 111 0 0.577592f
c15 109 0 0.015849f
c16 108 0 0.454205f
c17 106 0 0.0150092f
c18 105 0 0.43152f
c19 68 0 0.351827f
c20 67 0 0.133266f
c21 62 0 0.106404f
c22 55 0 0.352394f
c23 54 0 0.131729f
c24 49 0 0.108652f
c25 42 0 0.436244f
c26 41 0 0.135087f
c27 36 0 0.108714f
c28 29 0 0.378187f
c29 28 0 0.131561f
c30 23 0 0.108652f
c31 14 0 0.127437f
c32 9 0 0.215608f
c33 5 0 0.0591424f
r34 173 196 50.25
r35 172 193 50.25
r36 171 190 50.25
r37 170 187 50.25
r38 169 184 22.75
r39 168 181 22.75
r40 167 178 22.75
r41 166 175 22.75
r42 141 142 8
r43 138 141 0.593704
r44 138 139 8
r45 135 138 0.965741
r46 135 136 8
r47 132 135 1.56333
r48 132 133 8
r49 129 132 1.55685
r50 129 130 8
r51 122 139 0.154074
r52 121 122 8
r53 119 121 0.148936
r54 114 142 0.908796
r55 114 115 0.0366364
r56 111 136 0.907593
r57 111 112 0.0366364
r58 108 133 0.91
r59 108 109 0.0366364
r60 105 130 0.91
r61 105 106 0.0366364
r62 68 115 0.735463
r63 67 68 8
r64 65 173 4.73303
r65 65 169 4.73303
r66 62 65 6.2234
r67 62 67 13.2552
r68 55 112 0.735463
r69 54 55 8
r70 52 172 4.73303
r71 52 168 4.73303
r72 49 52 6.2234
r73 49 54 13.2552
r74 42 109 0.735463
r75 41 42 8
r76 39 171 4.73303
r77 39 167 4.73303
r78 36 39 6.2234
r79 36 41 13.2552
r80 29 106 0.735463
r81 28 29 8
r82 26 170 4.73303
r83 26 166 4.73303
r84 23 26 6.2234
r85 23 28 13.2552
r86 13 14 16.3327
r87 11 13 4.59
r88 8 9 8.16635
r89 6 8 1.53
r90 5 119 0.001755
r91 4 9 0.1632
r92 4 5 0.0375995
r93 3 14 0.1258
r94 3 5 0.0375995
.ends

.subckt PM_FINALPROJECT%XI26/NET0105 6 11 163 166 169 172 175 178 181 184
c0 184 0 0.163307f
c1 181 0 0.165185f
c2 172 0 0.168029f
c3 169 0 0.164445f
c4 159 0 0.0780228f
c5 158 0 0.0780235f
c6 155 0 0.082799f
c7 154 0 0.0780235f
c8 152 0 0.104429f
c9 149 0 1.26545f
c10 148 0 0.0560104f
c11 145 0 0.103962f
c12 141 0 0.0558014f
c13 127 0 5.35517f
c14 114 0 0.285576f
c15 113 0 5.46865f
c16 109 0 0.157503f
c17 103 0 0.0154568f
c18 102 0 0.49138f
c19 100 0 0.0146664f
c20 99 0 0.553486f
c21 68 0 0.88486f
c22 67 0 0.105619f
c23 62 0 0.104998f
c24 55 0 0.862341f
c25 54 0 0.104577f
c26 49 0 0.105477f
c27 42 0 0.390441f
c28 41 0 0.111937f
c29 36 0 0.108654f
c30 29 0 0.372038f
c31 28 0 0.10873f
c32 23 0 0.104998f
c33 14 0 0.146914f
c34 9 0 0.257804f
c35 5 0 0.0591424f
r36 161 184 51.25
r37 160 181 51.25
r38 159 178 21.75
r39 158 175 21.75
r40 157 172 51.25
r41 156 169 51.25
r42 155 166 21.75
r43 154 163 21.75
r44 148 152 8
r45 148 149 8
r46 142 149 3.0887
r47 141 145 8
r48 141 142 8
r49 134 135 8
r50 131 134 1.56204
r51 131 132 8
r52 127 131 0.575556
r53 127 152 8
r54 123 124 8
r55 120 123 1.56074
r56 120 121 8
r57 117 120 0.574259
r58 117 145 8
r59 113 117 1.20426
r60 113 114 8
r61 110 114 0.405648
r62 109 110 8
r63 107 109 0.147447
r64 102 124 0.660833
r65 102 103 0.0330909
r66 99 121 0.662037
r67 99 100 0.0330909
r68 68 135 1.44926
r69 67 68 8
r70 65 161 4.73303
r71 65 159 4.73303
r72 62 65 6.2234
r73 62 67 13.2552
r74 55 132 1.44926
r75 54 55 8
r76 52 160 4.73303
r77 52 158 4.73303
r78 49 52 6.2234
r79 49 54 13.2552
r80 42 103 0.730648
r81 41 42 8
r82 39 157 4.73303
r83 39 155 4.73303
r84 36 39 6.2234
r85 36 41 13.2552
r86 29 100 0.730648
r87 28 29 8
r88 26 156 4.73303
r89 26 154 4.73303
r90 23 26 6.2234
r91 23 28 13.2552
r92 13 14 16.3327
r93 11 13 4.59
r94 8 9 8.16635
r95 6 8 1.53
r96 5 107 0.001755
r97 4 9 0.1632
r98 4 5 0.0375995
r99 3 14 0.1258
r100 3 5 0.0375995
.ends

.subckt PM_FINALPROJECT%XI26/NET0116 6 11 165 168 171 174 177 180 183 186
c0 186 0 0.166611f
c1 183 0 0.165312f
c2 174 0 0.164577f
c3 171 0 0.16549f
c4 161 0 0.0796951f
c5 160 0 0.0796951f
c6 157 0 0.0796951f
c7 156 0 0.0808082f
c8 154 0 0.0592476f
c9 151 0 1.13499f
c10 150 0 0.0369328f
c11 147 0 0.0639723f
c12 143 0 0.0323077f
c13 129 0 5.32859f
c14 116 0 0.583833f
c15 115 0 5.49758f
c16 112 0 0.0180654f
c17 111 0 0.1559f
c18 105 0 0.0180437f
c19 104 0 0.531263f
c20 102 0 0.0191181f
c21 101 0 0.617625f
c22 98 0 0.0180923f
c23 68 0 0.847181f
c24 67 0 0.108973f
c25 62 0 0.104886f
c26 55 0 0.805512f
c27 54 0 0.105181f
c28 49 0 0.104886f
c29 42 0 0.40479f
c30 41 0 0.105181f
c31 36 0 0.104886f
c32 29 0 0.467572f
c33 28 0 0.105549f
c34 23 0 0.105002f
c35 14 0 0.145019f
c36 9 0 0.250944f
c37 5 0 0.057783f
r38 163 186 50.5
r39 162 183 50.5
r40 161 180 22.5
r41 160 177 22.5
r42 159 174 50.5
r43 158 171 50.5
r44 157 168 22.5
r45 156 165 22.5
r46 150 154 8
r47 150 151 8
r48 144 151 3.0887
r49 143 147 8
r50 143 144 8
r51 136 154 8
r52 133 136 0.180185
r53 133 134 8
r54 129 133 3.12019
r55 129 130 8
r56 125 147 8
r57 122 125 0.184074
r58 122 123 8
r59 119 122 3.12278
r60 119 120 8
r61 115 119 1.35593
r62 115 116 8
r63 111 112 8
r64 109 111 0.148191
r65 104 123 0.410463
r66 104 105 0.0330909
r67 101 120 0.409259
r68 101 102 0.0330909
r69 99 112 0.06604
r70 98 116 0.676
r71 98 99 0.0363174
r72 68 134 1.2025
r73 67 68 8
r74 65 163 4.73303
r75 65 161 4.73303
r76 62 65 6.20426
r77 62 67 13.2552
r78 55 130 1.2013
r79 54 55 8
r80 52 162 4.73303
r81 52 160 4.73303
r82 49 52 6.20426
r83 49 54 13.2552
r84 42 105 0.734259
r85 41 42 8
r86 39 159 4.73303
r87 39 157 4.73303
r88 36 39 6.20426
r89 36 41 13.2552
r90 29 102 0.734259
r91 28 29 8
r92 26 158 4.73303
r93 26 156 4.73303
r94 23 26 6.20426
r95 23 28 13.2552
r96 13 14 16.3327
r97 11 13 4.59
r98 8 9 8.16635
r99 6 8 1.53
r100 5 109 0.001755
r101 4 9 0.1632
r102 4 5 0.0375995
r103 3 14 0.1258
r104 3 5 0.0375995
.ends

.subckt PM_FINALPROJECT%XI26/XI3/NET030 1 6
c0 8 0 0.00740437f
c1 4 0 0.184894f
r2 8 9 16.3327
r3 6 8 4.572
r4 4 9 0.19963
r5 3 4 16.3327
r6 1 3 4.608
.ends

.subckt PM_FINALPROJECT%XI26/XI2/NET030 1 6
c0 8 0 0.00740437f
c1 4 0 0.187426f
r2 8 9 16.3327
r3 6 8 4.59
r4 4 9 0.19963
r5 3 4 16.3327
r6 1 3 4.59
.ends

.subckt PM_FINALPROJECT%XI26/XI1/NET030 1 6
c0 8 0 0.00740437f
c1 4 0 0.190066f
c2 3 0 0.00583401f
r3 8 9 16.3327
r4 6 8 4.59
r5 4 9 0.19963
r6 3 4 16.3327
r7 1 3 4.59
.ends

.subckt PM_FINALPROJECT%XI26/XI0/NET030 1 6
c0 8 0 0.00740437f
c1 4 0 0.186555f
r2 8 9 16.3327
r3 6 8 4.59
r4 4 9 0.19963
r5 3 4 16.3327
r6 1 3 4.59
.ends

.subckt PM_FINALPROJECT%XI26/XI3/NET40 1 6
c0 8 0 0.00741123f
c1 4 0 0.193423f
r2 8 9 16.3327
r3 6 8 4.59
r4 4 9 0.19963
r5 3 4 16.3327
r6 1 3 4.59
.ends

.subckt PM_FINALPROJECT%XI26/XI2/NET40 1 6
c0 8 0 0.00741123f
c1 4 0 0.197517f
r2 8 9 16.3327
r3 6 8 4.59
r4 4 9 0.19963
r5 3 4 16.3327
r6 1 3 4.59
.ends

.subckt PM_FINALPROJECT%XI26/XI1/NET40 1 6
c0 8 0 0.00741123f
c1 4 0 0.195755f
c2 3 0 0.00848479f
r3 8 9 16.3327
r4 6 8 4.59
r5 4 9 0.19963
r6 3 4 16.3327
r7 1 3 4.59
.ends

.subckt PM_FINALPROJECT%XI26/XI0/NET40 1 6
c0 8 0 0.00741123f
c1 4 0 0.197088f
c2 3 0 0.00848854f
r3 8 9 16.3327
r4 6 8 4.59
r5 4 9 0.19963
r6 3 4 16.3327
r7 1 3 4.59
.ends

.subckt PM_FINALPROJECT%XI26/XI3/NET44 1 6
c0 8 0 0.00764308f
c1 4 0 0.190216f
c2 3 0 0.0121259f
r3 8 9 16.3327
r4 6 8 4.59
r5 4 9 0.19963
r6 3 4 16.3327
r7 1 3 4.59
.ends

.subckt PM_FINALPROJECT%XI26/XI2/NET44 1 6
c0 8 0 0.00764308f
c1 4 0 0.194134f
c2 3 0 0.00947511f
r3 8 9 16.3327
r4 6 8 4.59
r5 4 9 0.19963
r6 3 4 16.3327
r7 1 3 4.59
.ends

.subckt PM_FINALPROJECT%XI26/XI1/NET44 1 6
c0 8 0 0.00764308f
c1 4 0 0.185886f
r2 8 9 16.3327
r3 6 8 4.59
r4 4 9 0.19963
r5 3 4 16.3327
r6 1 3 4.59
.ends

.subckt PM_FINALPROJECT%XI26/XI0/NET44 1 6
c0 8 0 0.00816364f
c1 4 0 0.189782f
c2 3 0 0.00848854f
r3 8 9 16.3327
r4 6 8 4.59
r5 4 9 0.19963
r6 3 4 16.3327
r7 1 3 4.59
.ends

.subckt PM_FINALPROJECT%XI26/XI7/NET030 1 6
c0 8 0 0.00740437f
c1 4 0 0.188412f
r2 8 9 16.3327
r3 6 8 4.572
r4 4 9 0.19963
r5 3 4 16.3327
r6 1 3 4.608
.ends

.subckt PM_FINALPROJECT%XI26/XI6/NET030 1 6
c0 8 0 0.00740437f
c1 4 0 0.184293f
r2 8 9 16.3327
r3 6 8 4.59
r4 4 9 0.19963
r5 3 4 16.3327
r6 1 3 4.59
.ends

.subckt PM_FINALPROJECT%XI26/XI5/NET030 1 6
c0 8 0 0.00740437f
c1 4 0 0.186731f
r2 8 9 16.3327
r3 6 8 4.59
r4 4 9 0.19963
r5 3 4 16.3327
r6 1 3 4.59
.ends

.subckt PM_FINALPROJECT%XI26/XI4/NET030 1 6
c0 8 0 0.01325f
c1 4 0 0.187631f
r2 8 9 16.3327
r3 6 8 4.59
r4 4 9 0.19963
r5 3 4 16.3327
r6 1 3 4.59
.ends

.subckt PM_FINALPROJECT%XI26/XI7/NET40 1 6
c0 8 0 0.00741123f
c1 4 0 0.195721f
r2 8 9 16.3327
r3 6 8 4.59
r4 4 9 0.19963
r5 3 4 16.3327
r6 1 3 4.59
.ends

.subckt PM_FINALPROJECT%XI26/XI6/NET40 1 6
c0 8 0 0.00741123f
c1 4 0 0.191667f
r2 8 9 16.3327
r3 6 8 4.59
r4 4 9 0.19963
r5 3 4 16.3327
r6 1 3 4.59
.ends

.subckt PM_FINALPROJECT%XI26/XI5/NET40 1 6
c0 8 0 0.013442f
c1 4 0 0.196121f
r2 8 9 16.3327
r3 6 8 4.59
r4 4 9 0.19963
r5 3 4 16.3327
r6 1 3 4.59
.ends

.subckt PM_FINALPROJECT%XI26/XI4/NET40 1 6
c0 8 0 0.00741123f
c1 4 0 0.191667f
r2 8 9 16.3327
r3 6 8 4.59
r4 4 9 0.19963
r5 3 4 16.3327
r6 1 3 4.59
.ends

.subckt PM_FINALPROJECT%XI26/XI7/NET44 1 6
c0 8 0 0.00764308f
c1 4 0 0.191154f
r2 8 9 16.3327
r3 6 8 4.59
r4 4 9 0.19963
r5 3 4 16.3327
r6 1 3 4.59
.ends

.subckt PM_FINALPROJECT%XI26/XI6/NET44 1 6
c0 8 0 0.00764308f
c1 4 0 0.185904f
r2 8 9 16.3327
r3 6 8 4.59
r4 4 9 0.19963
r5 3 4 16.3327
r6 1 3 4.59
.ends

.subckt PM_FINALPROJECT%XI26/XI5/NET44 1 6
c0 8 0 0.00764308f
c1 4 0 0.185142f
r2 8 9 16.3327
r3 6 8 4.59
r4 4 9 0.19963
r5 3 4 16.3327
r6 1 3 4.59
.ends

.subckt PM_FINALPROJECT%XI26/XI4/NET44 1 6
c0 8 0 0.00814177f
c1 4 0 0.18677f
r2 8 9 16.3327
r3 6 8 4.59
r4 4 9 0.19963
r5 3 4 16.3327
r6 1 3 4.59
.ends

.subckt PM_FINALPROJECT%XI29/XI31/NET13 9 13 48 57 66 71
c0 106 0 0.0894651f
c1 104 0 0.115739f
c2 103 0 0.104365f
c3 95 0 0.116497f
c4 91 0 0.0989223f
c5 88 0 0.022876f
c6 82 0 0.0609951f
c7 78 0 0.125633f
c8 74 0 0.118913f
c9 69 0 0.135616f
c10 62 0 0.0194131f
c11 54 0 0.0264145f
c12 45 0 0.0485186f
c13 44 0 0.120714f
c14 37 0 0.00173425f
c15 34 0 0.0169566f
c16 33 0 0.0226705f
c17 32 0 0.0316175f
c18 31 0 0.0439493f
c19 28 0 0.0386232f
c20 26 0 0.221501f
c21 25 0 0.311262f
c22 22 0 0.225211f
c23 21 0 0.0267683f
c24 19 0 0.154691f
c25 15 0 0.0347961f
c26 13 0 0.139193f
c27 9 0 0.103932f
c28 2 0 0.0771162f
r29 91 107 0.0492329
r30 91 92 8
r31 88 92 0.1794
r32 74 95 8
r33 73 74 16.3327
r34 71 73 4.59
r35 69 78 8
r36 68 69 16.3327
r37 66 68 4.572
r38 62 107 0.04312
r39 62 106 0.02408
r40 60 106 0.0804445
r41 60 88 8
r42 59 91 16.3327
r43 59 62 16.3327
r44 59 60 16.3327
r45 57 59 1.53
r46 56 104 0.0881377
r47 54 104 0.0021
r48 54 103 0.0562333
r49 51 103 0.045007
r50 51 82 4
r51 50 56 16.3327
r52 50 54 16.3327
r53 50 51 16.3327
r54 48 50 1.524
r55 44 45 8
r56 36 95 0.38896
r57 36 37 0.0275239
r58 35 92 0.02444
r59 35 37 0.0275239
r60 34 45 0.2015
r61 30 82 0.24414
r62 29 32 0.06125
r63 29 31 0.04
r64 29 30 0.00508554
r65 28 78 0.21606
r66 27 33 0.0275239
r67 26 37 0.00715299
r68 26 27 0.7644
r69 25 34 0.0363174
r70 24 33 0.00715299
r71 24 25 1.0452
r72 22 33 0.0275239
r73 22 32 0.6838
r74 21 31 0.1781
r75 19 28 0.0363174
r76 18 21 0.0363174
r77 18 19 0.3549
r78 11 15 7.73958
r79 11 13 55.25
r80 7 15 7.73958
r81 7 9 31.5
r82 4 44 13.2552
r83 2 15 1.29764
r84 2 4 5.24681
.ends

.subckt PM_FINALPROJECT%XI29/XI31/NET5 9 13 48 57 66 71
c0 106 0 0.0864526f
c1 104 0 0.100166f
c2 103 0 0.0967331f
c3 95 0 0.0906986f
c4 91 0 0.0960559f
c5 88 0 0.0126956f
c6 78 0 0.0361748f
c7 74 0 0.111925f
c8 69 0 0.0991547f
c9 68 0 0.00209149f
c10 62 0 0.0197266f
c11 53 0 0.0226833f
c12 45 0 0.0699388f
c13 44 0 0.118246f
c14 37 0 8.27575e-23
c15 34 0 0.0137122f
c16 33 0 0.0172215f
c17 32 0 0.00893518f
c18 31 0 0.0748649f
c19 29 0 0.0173208f
c20 28 0 0.230581f
c21 27 0 0.0779459f
c22 25 0 0.187271f
c23 22 0 0.105545f
c24 21 0 0.107886f
c25 19 0 0.0364898f
c26 18 0 0.0508652f
c27 15 0 0.0342742f
c28 13 0 0.145539f
c29 9 0 0.103905f
c30 2 0 0.0783412f
r31 91 107 0.0492329
r32 91 92 8
r33 88 92 0.1794
r34 77 103 0.0442092
r35 77 78 4
r36 74 95 8
r37 73 74 16.3327
r38 71 73 4.59
r39 69 82 8
r40 68 69 16.3327
r41 66 68 4.59
r42 62 107 0.04312
r43 62 106 0.02408
r44 60 106 0.0804445
r45 60 88 8
r46 59 91 16.3327
r47 59 62 16.3327
r48 59 60 16.3327
r49 57 59 1.53
r50 55 104 0.0451632
r51 53 104 0.056
r52 53 103 0.00233333
r53 51 77 0.04375
r54 50 55 16.3327
r55 50 53 16.3327
r56 50 51 16.3327
r57 48 50 1.53
r58 44 45 8
r59 36 95 0.38896
r60 36 37 0.0275239
r61 35 92 0.02444
r62 35 37 0.0275239
r63 34 45 0.2288
r64 31 82 0.156
r65 31 32 0.0275239
r66 30 78 0.0975
r67 28 37 0.00715299
r68 28 29 0.7917
r69 27 34 0.0363174
r70 26 33 0.0275239
r71 26 27 0.3783
r72 25 33 0.0275239
r73 24 29 0.0363174
r74 24 25 0.6019
r75 23 32 0.0275239
r76 22 33 0.00715299
r77 22 23 0.3003
r78 20 32 0.00715299
r79 20 21 0.3211
r80 19 30 0.0363174
r81 18 21 0.0363174
r82 18 19 0.1261
r83 11 15 7.73958
r84 11 13 55.25
r85 7 15 7.73958
r86 7 9 31.5
r87 4 44 13.2552
r88 2 15 1.29764
r89 2 4 5.24681
.ends

.subckt PM_FINALPROJECT%XI29/XI31/NET18 6 11 31 36
c0 39 0 0.145187f
c1 34 0 0.263519f
c2 33 0 0.0127844f
c3 30 0 0.0427857f
c4 27 0 0.267098f
c5 25 0 0.144751f
c6 23 0 0.126183f
c7 14 0 0.124704f
c8 9 0 0.232359f
c9 5 0 0.0592244f
r10 38 39 16.3327
r11 36 38 4.608
r12 33 34 5.44423
r13 31 33 1.536
r14 29 39 0.171733
r15 29 30 0.0296412
r16 28 34 0.2751
r17 28 30 0.0296412
r18 26 27 0.730333
r19 25 27 0.0270019
r20 24 30 0.00770322
r21 23 26 0.039111
r22 23 24 0.274167
r23 22 25 0.173511
r24 13 14 16.3327
r25 11 13 4.59
r26 8 9 8.16635
r27 6 8 1.53
r28 5 22 0.001755
r29 4 9 0.1632
r30 4 5 0.0375995
r31 3 14 0.1258
r32 3 5 0.0375995
.ends

.subckt PM_FINALPROJECT%XI29/XI31/XI5/NET12 2 7
c0 10 0 0.492595f
c1 7 0 0.0177525f
c2 4 0 0.0076122f
r3 9 10 5.44423
r4 7 9 1.53
r5 5 10 0.0451773
r6 4 5 5.44423
r7 2 4 1.53
.ends

.subckt PM_FINALPROJECT%XI29/XI31/XI5/NET5 2 7
c0 10 0 0.181783f
r1 9 10 16.3327
r2 7 9 4.59
r3 5 10 0.2268
r4 4 5 16.3327
r5 2 4 4.59
.ends

.subckt PM_FINALPROJECT%XI29/XI31/NET14 6 11 37 42 49 53
c0 66 0 0.140804f
c1 57 0 0.135356f
c2 51 0 0.0780784f
c3 49 0 0.165909f
c4 45 0 0.186972f
c5 40 0 0.16105f
c6 36 0 0.0250885f
c7 33 0 0.0132036f
c8 32 0 0.0259202f
c9 30 0 0.0278093f
c10 29 0 0.223904f
c11 26 0 0.0731969f
c12 24 0 0.0811506f
c13 23 0 0.106531f
c14 14 0 0.133912f
c15 13 0 0.0153646f
c16 9 0 0.228415f
c17 8 0 0.0460937f
c18 5 0 0.0617747f
r19 58 66 0.0574292
r20 57 58 13.2552
r21 54 57 5.92105
r22 51 54 5.62351
r23 51 53 22.5
r24 47 54 5.62351
r25 47 49 60
r26 44 45 16.3327
r27 42 44 4.59
r28 39 40 5.44423
r29 37 39 1.53
r30 35 40 0.0991667
r31 35 36 0.0254031
r32 34 45 0.3591
r33 34 36 0.0254031
r34 31 33 0.0296412
r35 30 36 0.0115133
r36 30 31 0.1148
r37 29 33 0.00770322
r38 28 29 0.8624
r39 26 28 0.039111
r40 26 66 0.1512
r41 24 33 0.0296412
r42 24 32 0.2618
r43 23 32 0.0428022
r44 22 23 0.150426
r45 13 14 16.3327
r46 11 13 4.59
r47 8 9 8.16635
r48 6 8 1.53
r49 5 22 0.001755
r50 4 9 0.1632
r51 4 5 0.0375995
r52 3 14 0.1258
r53 3 5 0.0375995
.ends

.subckt PM_FINALPROJECT%XI29/XI31/XI6/NET5 2 7
c0 10 0 0.180234f
r1 9 10 16.3327
r2 7 9 4.59
r3 5 10 0.2268
r4 4 5 16.3327
r5 2 4 4.59
.ends

.subckt PM_FINALPROJECT%XI29/XI31/XI6/NET12 2 7
c0 10 0 0.467787f
c1 7 0 0.0177525f
c2 4 0 0.0065859f
r3 9 10 5.44423
r4 7 9 1.53
r5 5 10 0.0402128
r6 4 5 5.44423
r7 2 4 1.53
.ends

.subckt PM_FINALPROJECT%XI29/XI31/NET1 6 11 28 32 55 59
c0 68 0 0.126554f
c1 63 0 0.130959f
c2 57 0 0.0781432f
c3 55 0 0.164837f
c4 51 0 0.0421862f
c5 49 0 0.0122448f
c6 48 0 0.0256837f
c7 45 0 0.286864f
c8 42 0 0.0703913f
c9 40 0 0.084033f
c10 39 0 0.0940394f
c11 34 0 0.0347961f
c12 32 0 0.138583f
c13 28 0 0.100974f
c14 24 0 0.116954f
c15 21 0 0.0770276f
c16 14 0 0.132662f
c17 13 0 0.0152705f
c18 9 0 0.231101f
c19 8 0 0.0458116f
c20 5 0 0.0658934f
r21 64 68 0.0574292
r22 63 64 13.2552
r23 60 63 5.92105
r24 57 60 5.62351
r25 57 59 22.5
r26 53 60 5.62351
r27 53 55 60
r28 47 49 0.0296412
r29 47 51 0.1442
r30 45 49 0.00770322
r31 44 45 0.8316
r32 42 44 0.039111
r33 42 68 0.1932
r34 40 49 0.0296412
r35 40 48 0.3038
r36 39 48 0.0502497
r37 38 39 0.150426
r38 30 34 7.73958
r39 30 32 55.25
r40 26 34 7.73958
r41 26 28 31.5
r42 24 51 0.0533774
r43 23 24 13.2552
r44 21 34 1.29764
r45 21 23 5.24681
r46 13 14 16.3327
r47 11 13 4.59
r48 8 9 8.16635
r49 6 8 1.53
r50 5 38 0.001755
r51 4 9 0.1632
r52 4 5 0.0375995
r53 3 14 0.1258
r54 3 5 0.0375995
.ends

.subckt PM_FINALPROJECT%XI29/XI32/NET13 9 13 48 57 66 71
c0 106 0 0.0894f
c1 104 0 0.115739f
c2 103 0 0.104365f
c3 95 0 0.116497f
c4 91 0 0.0989223f
c5 88 0 0.0228758f
c6 82 0 0.0609951f
c7 78 0 0.125633f
c8 74 0 0.118913f
c9 69 0 0.135616f
c10 62 0 0.0194131f
c11 54 0 0.0264145f
c12 45 0 0.0485186f
c13 44 0 0.120714f
c14 37 0 0.00173425f
c15 34 0 0.0169566f
c16 33 0 0.0226705f
c17 32 0 0.0316175f
c18 31 0 0.0439493f
c19 28 0 0.0386232f
c20 26 0 0.221501f
c21 25 0 0.311262f
c22 22 0 0.225211f
c23 21 0 0.0267683f
c24 19 0 0.154691f
c25 15 0 0.0347961f
c26 13 0 0.139193f
c27 9 0 0.103932f
c28 2 0 0.0771162f
r29 91 107 0.0492329
r30 91 92 8
r31 88 92 0.1794