* File: Final_all_v2.pex.spi.pex
* Created: Mon Jan 17 20:26:51 2022
* Program "Calibre xRC"
* Version "v2021.1_33.19"
* Nominal Temperature: 27C
* Circuit Temperature: 27C
* 
.subckt PM_FINAL_ALL_V2_XI27.NET096 23 28 33 34 38 43
c0 66 0 0.138331f
c1 65 0 0.116154f
c2 62 0 0.0277909f
c3 58 0 0.0341738f
c4 57 0 0.172982f
c5 54 0 0.0376838f
c6 45 0 0.00315755f
c7 41 0 0.139586f
c8 40 0 0.00154851f
c9 31 0 0.0993371f
c10 28 0 6.94513e-19
c11 26 0 0.11294f
c12 17 0 0.0864256f
c13 16 0 0.0163989f
c14 14 0 0.0278226f
c15 12 0 0.17103f
c16 11 0 0.0293087f
c17 9 0 0.0331066f
c18 6 0 0.0999407f
c19 4 0 0.115503f
c20 3 0 0.0349386f
r21 65 66 8
r22 57 58 8
r23 45 65 16.3327
r24 43 45 4.59
r25 41 62 8
r26 40 41 16.3327
r27 38 40 4.59
r28 36 57 16.3327
r29 34 36 4.608
r30 33 36 4.572
r31 31 54 8
r32 30 31 16.3327
r33 28 30 4.572
r34 26 50 8
r35 25 26 16.3327
r36 23 25 4.572
r37 17 66 0.316574
r38 15 62 0.0948519
r39 15 16 0.0275239
r40 13 58 0.108093
r41 13 14 0.00715299
r42 12 50 0.174296
r43 10 54 0.0936482
r44 10 11 0.0275239
r45 9 17 0.0364548
r46 8 16 0.0275239
r47 8 9 0.0878704
r48 7 14 0.0275239
r49 6 16 0.00715299
r50 6 7 0.263611
r51 5 11 0.00715299
r52 4 14 0.0275239
r53 4 5 0.26963
r54 3 12 0.0424285
r55 2 11 0.0275239
r56 2 3 0.0866667
.ends

.subckt PM_FINAL_ALL_V2_XI27.NET093 2 7
c0 10 0 0.181981f
c1 7 0 0.00996972f
c2 4 0 0.0179763f
r3 9 10 16.3327
r4 7 9 4.572
r5 5 10 0.19963
r6 4 5 16.3327
r7 2 4 4.608
.ends

.subckt PM_FINAL_ALL_V2_XI27.NET089 2 7
c0 10 0 0.22744f
c1 7 0 0.00914496f
c2 4 0 0.0169064f
r3 9 10 16.3327
r4 7 9 4.59
r5 5 10 0.19963
r6 4 5 16.3327
r7 2 4 4.59
.ends

.subckt PM_FINAL_ALL_V2_XI28.NET096 23 28 33 34 38 43
c0 66 0 0.129484f
c1 65 0 0.113802f
c2 62 0 0.0328565f
c3 58 0 0.0375799f
c4 57 0 0.172987f
c5 54 0 0.0401361f
c6 45 0 0.00315755f
c7 41 0 0.144642f
c8 40 0 0.00154851f
c9 31 0 0.106414f
c10 28 0 6.94513e-19
c11 26 0 0.115941f
c12 17 0 0.0864256f
c13 16 0 0.0163992f
c14 14 0 0.0278226f
c15 12 0 0.17823f
c16 11 0 0.0328527f
c17 9 0 0.0331066f
c18 6 0 0.105745f
c19 4 0 0.121428f
c20 3 0 0.0351667f
r21 65 66 8
r22 57 58 8
r23 45 65 16.3327
r24 43 45 4.59
r25 41 62 8
r26 40 41 16.3327
r27 38 40 4.59
r28 36 57 16.3327
r29 34 36 4.608
r30 33 36 4.572
r31 31 54 8
r32 30 31 16.3327
r33 28 30 4.572
r34 26 50 8
r35 25 26 16.3327
r36 23 25 4.572
r37 17 66 0.316574
r38 15 62 0.0948519
r39 15 16 0.0275239
r40 13 58 0.108093
r41 13 14 0.00715299
r42 12 50 0.174296
r43 10 54 0.0936482
r44 10 11 0.0275239
r45 9 17 0.0364548
r46 8 16 0.0275239
r47 8 9 0.0878704
r48 7 14 0.0275239
r49 6 16 0.00715299
r50 6 7 0.263611
r51 5 11 0.00715299
r52 4 14 0.0275239
r53 4 5 0.26963
r54 3 12 0.0424285
r55 2 11 0.0275239
r56 2 3 0.0866667
.ends

.subckt PM_FINAL_ALL_V2_XI28.NET093 2 7
c0 10 0 0.183407f
c1 7 0 0.00996972f
c2 4 0 0.0179217f
r3 9 10 16.3327
r4 7 9 4.572
r5 5 10 0.19963
r6 4 5 16.3327
r7 2 4 4.608
.ends

.subckt PM_FINAL_ALL_V2_XI28.NET089 2 7
c0 10 0 0.227336f
c1 7 0 0.00980745f
c2 4 0 0.0169064f
r3 9 10 16.3327
r4 7 9 4.59
r5 5 10 0.19963
r6 4 5 16.3327
r7 2 4 4.59
.ends

.subckt PM_FINAL_ALL_V2_XI29.XI49.NET14 2 7 20 24
c0 38 0 0.0564952f
c1 33 0 0.298917f
c2 26 0 0.0376597f
c3 24 0 0.165426f
c4 20 0 0.110349f
c5 16 0 0.15574f
c6 13 0 0.0791858f
c7 10 0 0.161583f
r8 35 38 0.001755
r9 33 38 0.0375995
r10 30 38 0.0375995
r11 22 26 7.73958
r12 22 24 55.25
r13 18 26 7.73958
r14 18 20 31.5
r15 16 35 0.106638
r16 15 16 13.2552
r17 13 26 1.29764
r18 13 15 5.24681
r19 10 30 0.1258
r20 9 10 16.3327
r21 7 9 4.59
r22 5 33 0.1632
r23 4 5 8.16635
r24 2 4 1.53
.ends

.subckt PM_FINAL_ALL_V2_XI29.NET107 2 7 20 24
c0 38 0 0.0564952f
c1 33 0 0.298532f
c2 26 0 0.0376597f
c3 24 0 0.165426f
c4 20 0 0.110843f
c5 16 0 0.156926f
c6 13 0 0.0792035f
c7 10 0 0.171656f
r8 35 38 0.001755
r9 33 38 0.0375995
r10 30 38 0.0375995
r11 22 26 7.73958
r12 22 24 55.25
r13 18 26 7.73958
r14 18 20 31.5
r15 16 35 0.106638
r16 15 16 13.2552
r17 13 26 1.29764
r18 13 15 5.24681
r19 10 30 0.1258
r20 9 10 16.3327
r21 7 9 4.59
r22 5 33 0.1632
r23 4 5 8.16635
r24 2 4 1.53
.ends

.subckt PM_FINAL_ALL_V2_XI29.XI47.NET14 2 7 20 24
c0 38 0 0.0564952f
c1 33 0 0.298917f
c2 26 0 0.0376597f
c3 24 0 0.165426f
c4 20 0 0.110349f
c5 16 0 0.15574f
c6 13 0 0.0791858f
c7 10 0 0.161583f
r8 35 38 0.001755
r9 33 38 0.0375995
r10 30 38 0.0375995
r11 22 26 7.73958
r12 22 24 55.25
r13 18 26 7.73958
r14 18 20 31.5
r15 16 35 0.106638
r16 15 16 13.2552
r17 13 26 1.29764
r18 13 15 5.24681
r19 10 30 0.1258
r20 9 10 16.3327
r21 7 9 4.59
r22 5 33 0.1632
r23 4 5 8.16635
r24 2 4 1.53
.ends

.subckt PM_FINAL_ALL_V2_XI29.XI48.NET14 2 7 20 24
c0 38 0 0.0564952f
c1 33 0 0.298917f
c2 26 0 0.0376597f
c3 24 0 0.165426f
c4 20 0 0.110349f
c5 16 0 0.15574f
c6 13 0 0.0791858f
c7 10 0 0.161583f
r8 35 38 0.001755
r9 33 38 0.0375995
r10 30 38 0.0375995
r11 22 26 7.73958
r12 22 24 55.25
r13 18 26 7.73958
r14 18 20 31.5
r15 16 35 0.106638
r16 15 16 13.2552
r17 13 26 1.29764
r18 13 15 5.24681
r19 10 30 0.1258
r20 9 10 16.3327
r21 7 9 4.59
r22 5 33 0.1632
r23 4 5 8.16635
r24 2 4 1.53
.ends

.subckt PM_FINAL_ALL_V2_XI29.NET115 2 7 20 24
c0 38 0 0.0564952f
c1 33 0 0.298532f
c2 26 0 0.0376597f
c3 24 0 0.165426f
c4 20 0 0.110843f
c5 16 0 0.156748f
c6 13 0 0.0792035f
c7 10 0 0.171656f
r8 35 38 0.001755
r9 33 38 0.0375995
r10 30 38 0.0375995
r11 22 26 7.73958
r12 22 24 55.25
r13 18 26 7.73958
r14 18 20 31.5
r15 16 35 0.106638
r16 15 16 13.2552
r17 13 26 1.29764
r18 13 15 5.24681
r19 10 30 0.1258
r20 9 10 16.3327
r21 7 9 4.59
r22 5 33 0.1632
r23 4 5 8.16635
r24 2 4 1.53
.ends

.subckt PM_FINAL_ALL_V2_XI29.NET106 2 7 20 24
c0 38 0 0.0564952f
c1 33 0 0.298532f
c2 26 0 0.0376597f
c3 24 0 0.165426f
c4 20 0 0.110843f
c5 16 0 0.156748f
c6 13 0 0.0792035f
c7 10 0 0.171656f
r8 35 38 0.001755
r9 33 38 0.0375995
r10 30 38 0.0375995
r11 22 26 7.73958
r12 22 24 55.25
r13 18 26 7.73958
r14 18 20 31.5
r15 16 35 0.106638
r16 15 16 13.2552
r17 13 26 1.29764
r18 13 15 5.24681
r19 10 30 0.1258
r20 9 10 16.3327
r21 7 9 4.59
r22 5 33 0.1632
r23 4 5 8.16635
r24 2 4 1.53
.ends

.subckt PM_FINAL_ALL_V2_XI29.NET094 2 7 20 24
c0 38 0 0.0564952f
c1 33 0 0.297452f
c2 26 0 0.0376597f
c3 24 0 0.165426f
c4 20 0 0.110843f
c5 16 0 0.156941f
c6 13 0 0.0792035f
c7 10 0 0.169554f
r8 35 38 0.001755
r9 33 38 0.0375995
r10 30 38 0.0375995
r11 22 26 7.73958
r12 22 24 55.25
r13 18 26 7.73958
r14 18 20 31.5
r15 16 35 0.106638
r16 15 16 13.2552
r17 13 26 1.29764
r18 13 15 5.24681
r19 10 30 0.1258
r20 9 10 16.3327
r21 7 9 4.59
r22 5 33 0.1632
r23 4 5 8.16635
r24 2 4 1.53
.ends

.subckt PM_FINAL_ALL_V2_XI29.NET0102 2 7 20 24
c0 38 0 0.0564952f
c1 33 0 0.298531f
c2 26 0 0.0376597f
c3 24 0 0.165426f
c4 20 0 0.110843f
c5 16 0 0.156756f
c6 13 0 0.0792035f
c7 10 0 0.171656f
r8 35 38 0.001755
r9 33 38 0.0375995
r10 30 38 0.0375995
r11 22 26 7.73958
r12 22 24 55.25
r13 18 26 7.73958
r14 18 20 31.5
r15 16 35 0.106638
r16 15 16 13.2552
r17 13 26 1.29764
r18 13 15 5.24681
r19 10 30 0.1258
r20 9 10 16.3327
r21 7 9 4.59
r22 5 33 0.1632
r23 4 5 8.16635
r24 2 4 1.53
.ends

.subckt PM_FINAL_ALL_V2_XI29.NET0110 2 7 20 24
c0 38 0 0.0564952f
c1 33 0 0.298531f
c2 26 0 0.0376597f
c3 24 0 0.165426f
c4 20 0 0.110843f
c5 16 0 0.156755f
c6 13 0 0.0792035f
c7 10 0 0.171656f
r8 35 38 0.001755
r9 33 38 0.0375995
r10 30 38 0.0375995
r11 22 26 7.73958
r12 22 24 55.25
r13 18 26 7.73958
r14 18 20 31.5
r15 16 35 0.106638
r16 15 16 13.2552
r17 13 26 1.29764
r18 13 15 5.24681
r19 10 30 0.1258
r20 9 10 16.3327
r21 7 9 4.59
r22 5 33 0.1632
r23 4 5 8.16635
r24 2 4 1.53
.ends

.subckt PM_FINAL_ALL_V2_XI29.NET0154 2 7 20 24
c0 38 0 0.0564952f
c1 33 0 0.298531f
c2 26 0 0.0376597f
c3 24 0 0.165426f
c4 20 0 0.117771f
c5 16 0 0.159419f
c6 13 0 0.0797476f
c7 10 0 0.173f
r8 35 38 0.001755
r9 33 38 0.0375995
r10 30 38 0.0375995
r11 22 26 7.73958
r12 22 24 55.25
r13 18 26 7.73958
r14 18 20 31.5
r15 16 35 0.106638
r16 15 16 13.2552
r17 13 26 1.29764
r18 13 15 5.24681
r19 10 30 0.1258
r20 9 10 16.3327
r21 7 9 4.59
r22 5 33 0.1632
r23 4 5 8.16635
r24 2 4 1.53
.ends

.subckt PM_FINAL_ALL_V2_XI29.XI38.NET14 2 7 20 24
c0 38 0 0.0600574f
c1 33 0 0.309907f
c2 26 0 0.0417941f
c3 24 0 0.168897f
c4 20 0 0.11387f
c5 16 0 0.163115f
c6 13 0 0.0827356f
c7 10 0 0.165351f
r8 35 38 0.001755
r9 33 38 0.0375995
r10 30 38 0.0375995
r11 22 26 7.73958
r12 22 24 55.25
r13 18 26 7.73958
r14 18 20 31.5
r15 16 35 0.106638
r16 15 16 13.2552
r17 13 26 1.29764
r18 13 15 5.24681
r19 10 30 0.1258
r20 9 10 16.3327
r21 7 9 4.59
r22 5 33 0.1632
r23 4 5 8.16635
r24 2 4 1.53
.ends

.subckt PM_FINAL_ALL_V2_XI29.XI39.NET14 2 7 20 24
c0 38 0 0.0594477f
c1 33 0 0.319735f
c2 26 0 0.0376597f
c3 24 0 0.182444f
c4 20 0 0.119289f
c5 16 0 0.159762f
c6 13 0 0.0832745f
c7 10 0 0.171761f
r8 35 38 0.001755
r9 33 38 0.0375995
r10 30 38 0.0375995
r11 22 26 7.73958
r12 22 24 55.25
r13 18 26 7.73958
r14 18 20 31.5
r15 16 35 0.106638
r16 15 16 13.2552
r17 13 26 1.29764
r18 13 15 5.24681
r19 10 30 0.1258
r20 9 10 16.3327
r21 7 9 4.59
r22 5 33 0.1632
r23 4 5 8.16635
r24 2 4 1.53
.ends

.subckt PM_FINAL_ALL_V2_XI29.XI40.NET14 2 7 20 24
c0 38 0 0.0596076f
c1 33 0 0.311492f
c2 26 0 0.0376597f
c3 24 0 0.165426f
c4 20 0 0.110349f
c5 16 0 0.15574f
c6 13 0 0.0791858f
c7 10 0 0.167701f
r8 35 38 0.001755
r9 33 38 0.0375995
r10 30 38 0.0375995
r11 22 26 7.73958
r12 22 24 55.25
r13 18 26 7.73958
r14 18 20 31.5
r15 16 35 0.106638
r16 15 16 13.2552
r17 13 26 1.29764
r18 13 15 5.24681
r19 10 30 0.1258
r20 9 10 16.3327
r21 7 9 4.59
r22 5 33 0.1632
r23 4 5 8.16635
r24 2 4 1.53
.ends

.subckt PM_FINAL_ALL_V2_XI29.XI46.NET14 2 7 20 24
c0 38 0 0.0564952f
c1 33 0 0.298917f
c2 26 0 0.0376597f
c3 24 0 0.165426f
c4 20 0 0.110349f
c5 16 0 0.15574f
c6 13 0 0.0791858f
c7 10 0 0.161583f
r8 35 38 0.001755
r9 33 38 0.0375995
r10 30 38 0.0375995
r11 22 26 7.73958
r12 22 24 55.25
r13 18 26 7.73958
r14 18 20 31.5
r15 16 35 0.106638
r16 15 16 13.2552
r17 13 26 1.29764
r18 13 15 5.24681
r19 10 30 0.1258
r20 9 10 16.3327
r21 7 9 4.59
r22 5 33 0.1632
r23 4 5 8.16635
r24 2 4 1.53
.ends

.subckt PM_FINAL_ALL_V2_XI29.NET0142 2 7 20 24
c0 38 0 0.0564952f
c1 33 0 0.298531f
c2 26 0 0.0376597f
c3 24 0 0.165426f
c4 20 0 0.118586f
c5 16 0 0.16063f
c6 13 0 0.0797476f
c7 10 0 0.186823f
c8 9 0 0.0057345f
r9 35 38 0.001755
r10 33 38 0.0375995
r11 30 38 0.0375995
r12 22 26 7.73958
r13 22 24 55.25
r14 18 26 7.73958
r15 18 20 31.5
r16 16 35 0.106638
r17 15 16 13.2552
r18 13 26 1.29764
r19 13 15 5.24681
r20 10 30 0.1258
r21 9 10 16.3327
r22 7 9 4.59
r23 5 33 0.1632
r24 4 5 8.16635
r25 2 4 1.53
.ends

.subckt PM_FINAL_ALL_V2_XI29.NET098 2 7 20 24
c0 38 0 0.0564952f
c1 33 0 0.298531f
c2 26 0 0.0376597f
c3 24 0 0.165426f
c4 20 0 0.118586f
c5 16 0 0.16063f
c6 13 0 0.0797476f
c7 10 0 0.186823f
c8 9 0 0.0057345f
r9 35 38 0.001755
r10 33 38 0.0375995
r11 30 38 0.0375995
r12 22 26 7.73958
r13 22 24 55.25
r14 18 26 7.73958
r15 18 20 31.5
r16 16 35 0.106638
r17 15 16 13.2552
r18 13 26 1.29764
r19 13 15 5.24681
r20 10 30 0.1258
r21 9 10 16.3327
r22 7 9 4.59
r23 5 33 0.1632
r24 4 5 8.16635
r25 2 4 1.53
.ends

.subckt PM_FINAL_ALL_V2_XI29.NET099 2 7 20 24
c0 38 0 0.0564952f
c1 33 0 0.298531f
c2 26 0 0.0376597f
c3 24 0 0.165426f
c4 20 0 0.118586f
c5 16 0 0.16063f
c6 13 0 0.0797476f
c7 10 0 0.186823f
c8 9 0 0.0057345f
r9 35 38 0.001755
r10 33 38 0.0375995
r11 30 38 0.0375995
r12 22 26 7.73958
r13 22 24 55.25
r14 18 26 7.73958
r15 18 20 31.5
r16 16 35 0.106638
r17 15 16 13.2552
r18 13 26 1.29764
r19 13 15 5.24681
r20 10 30 0.1258
r21 9 10 16.3327
r22 7 9 4.59
r23 5 33 0.1632
r24 4 5 8.16635
r25 2 4 1.53
.ends

.subckt PM_FINAL_ALL_V2_XI29.NET100 2 7 20 24
c0 38 0 0.0564952f
c1 33 0 0.298531f
c2 26 0 0.0376597f
c3 24 0 0.165426f
c4 20 0 0.118586f
c5 16 0 0.16063f
c6 13 0 0.0797476f
c7 10 0 0.186823f
c8 9 0 0.0057345f
r9 35 38 0.001755
r10 33 38 0.0375995
r11 30 38 0.0375995
r12 22 26 7.73958
r13 22 24 55.25
r14 18 26 7.73958
r15 18 20 31.5
r16 16 35 0.106638
r17 15 16 13.2552
r18 13 26 1.29764
r19 13 15 5.24681
r20 10 30 0.1258
r21 9 10 16.3327
r22 7 9 4.59
r23 5 33 0.1632
r24 4 5 8.16635
r25 2 4 1.53
.ends

.subckt PM_FINAL_ALL_V2_XI29.NET101 2 7 20 24
c0 38 0 0.0564952f
c1 33 0 0.298531f
c2 26 0 0.0376597f
c3 24 0 0.165426f
c4 20 0 0.118586f
c5 16 0 0.16063f
c6 13 0 0.0797476f
c7 10 0 0.186823f
c8 9 0 0.0057345f
r9 35 38 0.001755
r10 33 38 0.0375995
r11 30 38 0.0375995
r12 22 26 7.73958
r13 22 24 55.25
r14 18 26 7.73958
r15 18 20 31.5
r16 16 35 0.106638
r17 15 16 13.2552
r18 13 26 1.29764
r19 13 15 5.24681
r20 10 30 0.1258
r21 9 10 16.3327
r22 7 9 4.59
r23 5 33 0.1632
r24 4 5 8.16635
r25 2 4 1.53
.ends

.subckt PM_FINAL_ALL_V2_XI29.NET102 2 7 20 24
c0 38 0 0.0564952f
c1 33 0 0.298531f
c2 26 0 0.0376597f
c3 24 0 0.165426f
c4 20 0 0.118586f
c5 16 0 0.16063f
c6 13 0 0.0797476f
c7 10 0 0.186823f
c8 9 0 0.0057345f
r9 35 38 0.001755
r10 33 38 0.0375995
r11 30 38 0.0375995
r12 22 26 7.73958
r13 22 24 55.25
r14 18 26 7.73958
r15 18 20 31.5
r16 16 35 0.106638
r17 15 16 13.2552
r18 13 26 1.29764
r19 13 15 5.24681
r20 10 30 0.1258
r21 9 10 16.3327
r22 7 9 4.59
r23 5 33 0.1632
r24 4 5 8.16635
r25 2 4 1.53
.ends

.subckt PM_FINAL_ALL_V2_XI29.NET103 2 7 20 24
c0 38 0 0.0564952f
c1 33 0 0.298532f
c2 26 0 0.0376597f
c3 24 0 0.165426f
c4 20 0 0.117994f
c5 16 0 0.16063f
c6 13 0 0.0797476f
c7 10 0 0.186823f
c8 9 0 0.0057345f
r9 35 38 0.001755
r10 33 38 0.0375995
r11 30 38 0.0375995
r12 22 26 7.73958
r13 22 24 55.25
r14 18 26 7.73958
r15 18 20 31.5
r16 16 35 0.106638
r17 15 16 13.2552
r18 13 26 1.29764
r19 13 15 5.24681
r20 10 30 0.1258
r21 9 10 16.3327
r22 7 9 4.59
r23 5 33 0.1632
r24 4 5 8.16635
r25 2 4 1.53
.ends

.subckt PM_FINAL_ALL_V2_XI29.NET104 2 7 20 24
c0 38 0 0.0564952f
c1 33 0 0.298532f
c2 26 0 0.0376597f
c3 24 0 0.165426f
c4 20 0 0.110843f
c5 16 0 0.156755f
c6 13 0 0.0792035f
c7 10 0 0.172015f
r8 35 38 0.001755
r9 33 38 0.0375995
r10 30 38 0.0375995
r11 22 26 7.73958
r12 22 24 55.25
r13 18 26 7.73958
r14 18 20 31.5
r15 16 35 0.106638
r16 15 16 13.2552
r17 13 26 1.29764
r18 13 15 5.24681
r19 10 30 0.1258
r20 9 10 16.3327
r21 7 9 4.59
r22 5 33 0.1632
r23 4 5 8.16635
r24 2 4 1.53
.ends

.subckt PM_FINAL_ALL_V2_XI26.NET0158 6 11 175 178 181 184 187 190 193 196
c0 196 0 0.159846f
c1 193 0 0.170846f
c2 190 0 0.170823f
c3 187 0 0.169916f
c4 169 0 0.0771838f
c5 168 0 0.0822668f
c6 167 0 0.0833799f
c7 166 0 0.0827037f
c8 139 0 0.1081f
c9 129 0 8.74654f
c10 121 0 0.106936f
c11 115 0 0.0151741f
c12 114 0 0.413861f
c13 112 0 0.0151769f
c14 111 0 0.577592f
c15 109 0 0.015849f
c16 108 0 0.454205f
c17 106 0 0.0150092f
c18 105 0 0.43152f
c19 68 0 0.351826f
c20 67 0 0.133269f
c21 62 0 0.106404f
c22 55 0 0.352394f
c23 54 0 0.131729f
c24 49 0 0.108652f
c25 42 0 0.436244f
c26 41 0 0.135087f
c27 36 0 0.108714f
c28 29 0 0.378187f
c29 28 0 0.131561f
c30 23 0 0.108652f
c31 14 0 0.127437f
c32 9 0 0.215608f
c33 5 0 0.0591424f
r34 173 196 50.25
r35 172 193 50.25
r36 171 190 50.25
r37 170 187 50.25
r38 169 184 22.75
r39 168 181 22.75
r40 167 178 22.75
r41 166 175 22.75
r42 141 142 8
r43 138 141 0.593704
r44 138 139 8
r45 135 138 0.965741
r46 135 136 8
r47 132 135 1.56333
r48 132 133 8
r49 129 132 1.55685
r50 129 130 8
r51 122 139 0.154074
r52 121 122 8
r53 119 121 0.148936
r54 114 142 0.908796
r55 114 115 0.0366364
r56 111 136 0.907593
r57 111 112 0.0366364
r58 108 133 0.91
r59 108 109 0.0366364
r60 105 130 0.91
r61 105 106 0.0366364
r62 68 115 0.735463
r63 67 68 8
r64 65 173 4.73303
r65 65 169 4.73303
r66 62 65 6.2234
r67 62 67 13.2552
r68 55 112 0.735463
r69 54 55 8
r70 52 172 4.73303
r71 52 168 4.73303
r72 49 52 6.2234
r73 49 54 13.2552
r74 42 109 0.735463
r75 41 42 8
r76 39 171 4.73303
r77 39 167 4.73303
r78 36 39 6.2234
r79 36 41 13.2552
r80 29 106 0.735463
r81 28 29 8
r82 26 170 4.73303
r83 26 166 4.73303
r84 23 26 6.2234
r85 23 28 13.2552
r86 13 14 16.3327
r87 11 13 4.59
r88 8 9 8.16635
r89 6 8 1.53
r90 5 119 0.001755
r91 4 9 0.1632
r92 4 5 0.0375995
r93 3 14 0.1258
r94 3 5 0.0375995
.ends

.subckt PM_FINAL_ALL_V2_XI26.NET0105 6 11 163 166 169 172 175 178 181 184
c0 184 0 0.163307f
c1 181 0 0.165185f
c2 172 0 0.168029f
c3 169 0 0.164445f
c4 159 0 0.0780228f
c5 158 0 0.0780235f
c6 155 0 0.082799f
c7 154 0 0.0780235f
c8 152 0 0.104429f
c9 149 0 1.26557f
c10 148 0 0.0560106f
c11 145 0 0.103962f
c12 141 0 0.0558014f
c13 127 0 5.35494f
c14 114 0 0.285576f
c15 113 0 5.46865f
c16 109 0 0.157503f
c17 103 0 0.0154568f
c18 102 0 0.491379f
c19 100 0 0.0146664f
c20 99 0 0.553486f
c21 68 0 0.884854f
c22 67 0 0.105619f
c23 62 0 0.104998f
c24 55 0 0.862416f
c25 54 0 0.104577f
c26 49 0 0.105477f
c27 42 0 0.390441f
c28 41 0 0.111937f
c29 36 0 0.108654f
c30 29 0 0.372038f
c31 28 0 0.10873f
c32 23 0 0.104998f
c33 14 0 0.146914f
c34 9 0 0.257771f
c35 5 0 0.0591424f
r36 161 184 51.25
r37 160 181 51.25
r38 159 178 21.75
r39 158 175 21.75
r40 157 172 51.25
r41 156 169 51.25
r42 155 166 21.75
r43 154 163 21.75
r44 148 152 8
r45 148 149 8
r46 142 149 3.0887
r47 141 145 8
r48 141 142 8
r49 134 135 8
r50 131 134 1.56204
r51 131 132 8
r52 127 131 0.575556
r53 127 152 8
r54 123 124 8
r55 120 123 1.56074
r56 120 121 8
r57 117 120 0.574259
r58 117 145 8
r59 113 117 1.20426
r60 113 114 8
r61 110 114 0.405648
r62 109 110 8
r63 107 109 0.147447
r64 102 124 0.660833
r65 102 103 0.0330909
r66 99 121 0.662037
r67 99 100 0.0330909
r68 68 135 1.44926
r69 67 68 8
r70 65 161 4.73303
r71 65 159 4.73303
r72 62 65 6.2234
r73 62 67 13.2552
r74 55 132 1.44926
r75 54 55 8
r76 52 160 4.73303
r77 52 158 4.73303
r78 49 52 6.2234
r79 49 54 13.2552
r80 42 103 0.730648
r81 41 42 8
r82 39 157 4.73303
r83 39 155 4.73303
r84 36 39 6.2234
r85 36 41 13.2552
r86 29 100 0.730648
r87 28 29 8
r88 26 156 4.73303
r89 26 154 4.73303
r90 23 26 6.2234
r91 23 28 13.2552
r92 13 14 16.3327
r93 11 13 4.59
r94 8 9 8.16635
r95 6 8 1.53
r96 5 107 0.001755
r97 4 9 0.1632
r98 4 5 0.0375995
r99 3 14 0.1258
r100 3 5 0.0375995
.ends

.subckt PM_FINAL_ALL_V2_XI26.NET0116 6 11 165 168 171 174 177 180 183 186
c0 186 0 0.166611f
c1 183 0 0.16526f
c2 174 0 0.164577f
c3 171 0 0.16549f
c4 161 0 0.0796951f
c5 160 0 0.0796951f
c6 157 0 0.0796951f
c7 156 0 0.0808082f
c8 154 0 0.0592476f
c9 151 0 1.13528f
c10 150 0 0.0369328f
c11 147 0 0.0639723f
c12 143 0 0.0323077f
c13 129 0 5.33051f
c14 116 0 0.583833f
c15 115 0 5.49833f
c16 112 0 0.0180654f
c17 111 0 0.1559f
c18 105 0 0.0180437f
c19 104 0 0.531263f
c20 102 0 0.0191181f
c21 101 0 0.617625f
c22 98 0 0.0180923f
c23 68 0 0.847181f
c24 67 0 0.108973f
c25 62 0 0.104886f
c26 55 0 0.806792f
c27 54 0 0.105181f
c28 49 0 0.104886f
c29 42 0 0.40479f
c30 41 0 0.105181f
c31 36 0 0.104886f
c32 29 0 0.467572f
c33 28 0 0.105549f
c34 23 0 0.105002f
c35 14 0 0.145019f
c36 9 0 0.250933f
c37 5 0 0.057783f
r38 163 186 50.5
r39 162 183 50.5
r40 161 180 22.5
r41 160 177 22.5
r42 159 174 50.5
r43 158 171 50.5
r44 157 168 22.5
r45 156 165 22.5
r46 150 154 8
r47 150 151 8
r48 144 151 3.0887
r49 143 147 8
r50 143 144 8
r51 136 154 8
r52 133 136 0.180185
r53 133 134 8
r54 129 133 3.12019
r55 129 130 8
r56 125 147 8
r57 122 125 0.184074
r58 122 123 8
r59 119 122 3.12278
r60 119 120 8
r61 115 119 1.35593
r62 115 116 8
r63 111 112 8
r64 109 111 0.148191
r65 104 123 0.410463
r66 104 105 0.0330909
r67 101 120 0.409259
r68 101 102 0.0330909
r69 99 112 0.06604
r70 98 116 0.676
r71 98 99 0.0363174
r72 68 134 1.2025
r73 67 68 8
r74 65 163 4.73303
r75 65 161 4.73303
r76 62 65 6.20426
r77 62 67 13.2552
r78 55 130 1.2013
r79 54 55 8
r80 52 162 4.73303
r81 52 160 4.73303
r82 49 52 6.20426
r83 49 54 13.2552
r84 42 105 0.734259
r85 41 42 8
r86 39 159 4.73303
r87 39 157 4.73303
r88 36 39 6.20426
r89 36 41 13.2552
r90 29 102 0.734259
r91 28 29 8
r92 26 158 4.73303
r93 26 156 4.73303
r94 23 26 6.20426
r95 23 28 13.2552
r96 13 14 16.3327
r97 11 13 4.59
r98 8 9 8.16635
r99 6 8 1.53
r100 5 109 0.001755
r101 4 9 0.1632
r102 4 5 0.0375995
r103 3 14 0.1258
r104 3 5 0.0375995
.ends

.subckt PM_FINAL_ALL_V2_XI26.XI3.NET030 1 6
c0 8 0 0.00740437f
c1 4 0 0.184894f
r2 8 9 16.3327
r3 6 8 4.572
r4 4 9 0.19963
r5 3 4 16.3327
r6 1 3 4.608
.ends

.subckt PM_FINAL_ALL_V2_XI26.XI2.NET030 1 6
c0 8 0 0.00740437f
c1 4 0 0.187426f
r2 8 9 16.3327
r3 6 8 4.59
r4 4 9 0.19963
r5 3 4 16.3327
r6 1 3 4.59
.ends

.subckt PM_FINAL_ALL_V2_XI26.XI1.NET030 1 6
c0 8 0 0.00740437f
c1 4 0 0.190066f
c2 3 0 0.00583401f
r3 8 9 16.3327
r4 6 8 4.59
r5 4 9 0.19963
r6 3 4 16.3327
r7 1 3 4.59
.ends

.subckt PM_FINAL_ALL_V2_XI26.XI0.NET030 1 6
c0 8 0 0.00740437f
c1 4 0 0.186555f
r2 8 9 16.3327
r3 6 8 4.59
r4 4 9 0.19963
r5 3 4 16.3327
r6 1 3 4.59
.ends

.subckt PM_FINAL_ALL_V2_XI26.XI3.NET40 1 6
c0 8 0 0.00741123f
c1 4 0 0.193423f
r2 8 9 16.3327
r3 6 8 4.59
r4 4 9 0.19963
r5 3 4 16.3327
r6 1 3 4.59
.ends

.subckt PM_FINAL_ALL_V2_XI26.XI2.NET40 1 6
c0 8 0 0.00741123f
c1 4 0 0.197517f
r2 8 9 16.3327
r3 6 8 4.59
r4 4 9 0.19963
r5 3 4 16.3327
r6 1 3 4.59
.ends

.subckt PM_FINAL_ALL_V2_XI26.XI1.NET40 1 6
c0 8 0 0.00741123f
c1 4 0 0.195755f
c2 3 0 0.00848479f
r3 8 9 16.3327
r4 6 8 4.59
r5 4 9 0.19963
r6 3 4 16.3327
r7 1 3 4.59
.ends

.subckt PM_FINAL_ALL_V2_XI26.XI0.NET40 1 6
c0 8 0 0.00741123f
c1 4 0 0.197088f
c2 3 0 0.00848854f
r3 8 9 16.3327
r4 6 8 4.59
r5 4 9 0.19963
r6 3 4 16.3327
r7 1 3 4.59
.ends

.subckt PM_FINAL_ALL_V2_XI26.XI3.NET44 1 6
c0 8 0 0.00764308f
c1 4 0 0.190216f
c2 3 0 0.0121259f
r3 8 9 16.3327
r4 6 8 4.59
r5 4 9 0.19963
r6 3 4 16.3327
r7 1 3 4.59
.ends

.subckt PM_FINAL_ALL_V2_XI26.XI2.NET44 1 6
c0 8 0 0.00764308f
c1 4 0 0.194134f
c2 3 0 0.00947511f
r3 8 9 16.3327
r4 6 8 4.59
r5 4 9 0.19963
r6 3 4 16.3327
r7 1 3 4.59
.ends

.subckt PM_FINAL_ALL_V2_XI26.XI1.NET44 1 6
c0 8 0 0.00764308f
c1 4 0 0.185886f
r2 8 9 16.3327
r3 6 8 4.59
r4 4 9 0.19963
r5 3 4 16.3327
r6 1 3 4.59
.ends

.subckt PM_FINAL_ALL_V2_XI26.XI0.NET44 1 6
c0 8 0 0.00816364f
c1 4 0 0.189782f
c2 3 0 0.00848854f
r3 8 9 16.3327
r4 6 8 4.59
r5 4 9 0.19963
r6 3 4 16.3327
r7 1 3 4.59
.ends

.subckt PM_FINAL_ALL_V2_XI26.XI7.NET030 1 6
c0 8 0 0.00740437f
c1 4 0 0.188412f
r2 8 9 16.3327
r3 6 8 4.572
r4 4 9 0.19963
r5 3 4 16.3327
r6 1 3 4.608
.ends

.subckt PM_FINAL_ALL_V2_XI26.XI6.NET030 1 6
c0 8 0 0.00740437f
c1 4 0 0.185157f
r2 8 9 16.3327
r3 6 8 4.59
r4 4 9 0.19963
r5 3 4 16.3327
r6 1 3 4.59
.ends

.subckt PM_FINAL_ALL_V2_XI26.XI5.NET030 1 6
c0 8 0 0.00740437f
c1 4 0 0.186722f
r2 8 9 16.3327
r3 6 8 4.59
r4 4 9 0.19963
r5 3 4 16.3327
r6 1 3 4.59
.ends

.subckt PM_FINAL_ALL_V2_XI26.XI4.NET030 1 6
c0 8 0 0.01325f
c1 4 0 0.187631f
r2 8 9 16.3327
r3 6 8 4.59
r4 4 9 0.19963
r5 3 4 16.3327
r6 1 3 4.59
.ends

.subckt PM_FINAL_ALL_V2_XI26.XI7.NET40 1 6
c0 8 0 0.00741123f
c1 4 0 0.195721f
r2 8 9 16.3327
r3 6 8 4.59
r4 4 9 0.19963
r5 3 4 16.3327
r6 1 3 4.59
.ends

.subckt PM_FINAL_ALL_V2_XI26.XI6.NET40 1 6
c0 8 0 0.00741123f
c1 4 0 0.191667f
r2 8 9 16.3327
r3 6 8 4.59
r4 4 9 0.19963
r5 3 4 16.3327
r6 1 3 4.59
.ends

.subckt PM_FINAL_ALL_V2_XI26.XI5.NET40 1 6
c0 8 0 0.013442f
c1 4 0 0.196116f
r2 8 9 16.3327
r3 6 8 4.59
r4 4 9 0.19963
r5 3 4 16.3327
r6 1 3 4.59
.ends

.subckt PM_FINAL_ALL_V2_XI26.XI4.NET40 1 6
c0 8 0 0.00741123f
c1 4 0 0.191667f
r2 8 9 16.3327
r3 6 8 4.59
r4 4 9 0.19963
r5 3 4 16.3327
r6 1 3 4.59
.ends

.subckt PM_FINAL_ALL_V2_XI26.XI7.NET44 1 6
c0 8 0 0.00764308f
c1 4 0 0.191154f
r2 8 9 16.3327
r3 6 8 4.59
r4 4 9 0.19963
r5 3 4 16.3327
r6 1 3 4.59
.ends

.subckt PM_FINAL_ALL_V2_XI26.XI6.NET44 1 6
c0 8 0 0.00764308f
c1 4 0 0.185904f
r2 8 9 16.3327
r3 6 8 4.59
r4 4 9 0.19963
r5 3 4 16.3327
r6 1 3 4.59
.ends

.subckt PM_FINAL_ALL_V2_XI26.XI5.NET44 1 6
c0 8 0 0.00764308f
c1 4 0 0.185142f
r2 8 9 16.3327
r3 6 8 4.59
r4 4 9 0.19963
r5 3 4 16.3327
r6 1 3 4.59
.ends

.subckt PM_FINAL_ALL_V2_XI26.XI4.NET44 1 6
c0 8 0 0.00814177f
c1 4 0 0.18677f
r2 8 9 16.3327
r3 6 8 4.59
r4 4 9 0.19963
r5 3 4 16.3327
r6 1 3 4.59
.ends

.subckt PM_FINAL_ALL_V2_XI29.XI52.NET14 2 7 32 36
c0 38 0 0.0376597f
c1 36 0 0.165426f
c2 32 0 0.110843f
c3 28 0 0.156909f
c4 25 0 0.0792035f
c5 23 0 0.0564952f
c6 18 0 0.298531f
c7 10 0 0.171656f
r8 34 38 7.73958
r9 34 36 55.25
r10 30 38 7.73958
r11 30 32 31.5
r12 28 43 0.106638
r13 27 28 13.2552
r14 25 38 1.29764
r15 25 27 5.24681
r16 23 43 0.001755
r17 19 23 0.0375995
r18 18 23 0.0375995
r19 10 19 0.1258
r20 9 10 16.3327
r21 7 9 4.59
r22 5 18 0.1632
r23 4 5 8.16635
r24 2 4 1.53
.ends

.subckt PM_FINAL_ALL_V2_XI29.XI60.NET14 2 7 24 28
c0 46 0 0.0564952f
c1 35 0 0.298531f
c2 30 0 0.0376597f
c3 28 0 0.165426f
c4 24 0 0.110843f
c5 20 0 0.156755f
c6 17 0 0.0792035f
c7 10 0 0.17166f
r8 43 46 0.001755
r9 40 46 0.0375995
r10 35 46 0.0375995
r11 26 30 7.73958
r12 26 28 55.25
r13 22 30 7.73958
r14 22 24 31.5
r15 20 43 0.106638
r16 19 20 13.2552
r17 17 30 1.29764
r18 17 19 5.24681
r19 10 40 0.1258
r20 9 10 16.3327
r21 7 9 4.59
r22 5 35 0.1632
r23 4 5 8.16635
r24 2 4 1.53
.ends

.subckt PM_FINAL_ALL_V2_XI29.NET105 2 7 32 36
c0 38 0 0.0376597f
c1 36 0 0.182444f
c2 32 0 0.119289f
c3 28 0 0.158634f
c4 25 0 0.0846324f
c5 23 0 0.0596079f
c6 18 0 0.320854f
c7 10 0 0.172257f
r8 34 38 7.73958
r9 34 36 55.25
r10 30 38 7.73958
r11 30 32 31.5
r12 28 43 0.106638
r13 27 28 13.2552
r14 25 38 1.29764
r15 25 27 5.24681
r16 23 43 0.001755
r17 19 23 0.0375995
r18 18 23 0.0375995
r19 10 19 0.1258
r20 9 10 16.3327
r21 7 9 4.59
r22 5 18 0.1632
r23 4 5 8.16635
r24 2 4 1.53
.ends

.subckt PM_FINAL_ALL_V2_XI29.NET113 2 7 24 28
c0 46 0 0.0569387f
c1 35 0 0.300709f
c2 30 0 0.0376597f
c3 28 0 0.165426f
c4 24 0 0.110349f
c5 20 0 0.15574f
c6 17 0 0.0791858f
c7 10 0 0.162455f
r8 43 46 0.001755
r9 40 46 0.0375995
r10 35 46 0.0375995
r11 26 30 7.73958
r12 26 28 55.25
r13 22 30 7.73958
r14 22 24 31.5
r15 20 43 0.106638
r16 19 20 13.2552
r17 17 30 1.29764
r18 17 19 5.24681
r19 10 40 0.1258
r20 9 10 16.3327
r21 7 9 4.59
r22 5 35 0.1632
r23 4 5 8.16635
r24 2 4 1.53
.ends

.subckt PM_FINAL_ALL_V2_XI29.XI56.NET14 2 7 32 36
c0 38 0 0.0376597f
c1 36 0 0.165426f
c2 32 0 0.118586f
c3 28 0 0.16063f
c4 25 0 0.0797476f
c5 23 0 0.0564952f
c6 18 0 0.298531f
c7 10 0 0.186823f
c8 9 0 0.0057345f
r9 34 38 7.73958
r10 34 36 55.25
r11 30 38 7.73958
r12 30 32 31.5
r13 28 43 0.106638
r14 27 28 13.2552
r15 25 38 1.29764
r16 25 27 5.24681
r17 23 43 0.001755
r18 19 23 0.0375995
r19 18 23 0.0375995
r20 10 19 0.1258
r21 9 10 16.3327
r22 7 9 4.59
r23 5 18 0.1632
r24 4 5 8.16635
r25 2 4 1.53
.ends

.subckt PM_FINAL_ALL_V2_XI29.XI57.NET14 2 7 24 28
c0 46 0 0.0564952f
c1 35 0 0.298531f
c2 30 0 0.0376597f
c3 28 0 0.165426f
c4 24 0 0.118586f
c5 20 0 0.16063f
c6 17 0 0.0797476f
c7 10 0 0.186823f
c8 9 0 0.0057345f
r9 43 46 0.001755
r10 40 46 0.0375995
r11 35 46 0.0375995
r12 26 30 7.73958
r13 26 28 55.25
r14 22 30 7.73958
r15 22 24 31.5
r16 20 43 0.106638
r17 19 20 13.2552
r18 17 30 1.29764
r19 17 19 5.24681
r20 10 40 0.1258
r21 9 10 16.3327
r22 7 9 4.59
r23 5 35 0.1632
r24 4 5 8.16635
r25 2 4 1.53
.ends

.subckt PM_FINAL_ALL_V2_XI29.XI66.NET14 2 7 32 36
c0 38 0 0.0376597f
c1 36 0 0.165426f
c2 32 0 0.118586f
c3 28 0 0.16063f
c4 25 0 0.0797476f
c5 23 0 0.0564952f
c6 18 0 0.298531f
c7 10 0 0.186823f
c8 9 0 0.0057345f
r9 34 38 7.73958
r10 34 36 55.25
r11 30 38 7.73958
r12 30 32 31.5
r13 28 43 0.106638
r14 27 28 13.2552
r15 25 38 1.29764
r16 25 27 5.24681
r17 23 43 0.001755
r18 19 23 0.0375995
r19 18 23 0.0375995
r20 10 19 0.1258
r21 9 10 16.3327
r22 7 9 4.59
r23 5 18 0.1632
r24 4 5 8.16635
r25 2 4 1.53
.ends

.subckt PM_FINAL_ALL_V2_XI29.XI67.NET14 2 7 24 28
c0 46 0 0.0564952f
c1 35 0 0.298532f
c2 30 0 0.0376597f
c3 28 0 0.165426f
c4 24 0 0.110843f
c5 20 0 0.159266f
c6 17 0 0.0792035f
c7 10 0 0.186823f
c8 9 0 0.0057345f
r9 43 46 0.001755
r10 40 46 0.0375995
r11 35 46 0.0375995
r12 26 30 7.73958
r13 26 28 55.25
r14 22 30 7.73958
r15 22 24 31.5
r16 20 43 0.106638
r17 19 20 13.2552
r18 17 30 1.29764
r19 17 19 5.24681
r20 10 40 0.1258
r21 9 10 16.3327
r22 7 9 4.59
r23 5 35 0.1632
r24 4 5 8.16635
r25 2 4 1.53
.ends

.subckt PM_FINAL_ALL_V2_XI29.XI31.NET13 9 13 48 57 66 71
c0 106 0 0.0894651f
c1 104 0 0.115739f
c2 103 0 0.104365f
c3 95 0 0.116497f
c4 91 0 0.0989223f
c5 88 0 0.022876f
c6 82 0 0.0609951f
c7 78 0 0.125633f
c8 74 0 0.118913f
c9 69 0 0.135616f
c10 62 0 0.0194131f
c11 54 0 0.0264145f
c12 45 0 0.0485186f
c13 44 0 0.120714f
c14 37 0 0.00173425f
c15 34 0 0.0169566f
c16 33 0 0.0226705f
c17 32 0 0.0316175f
c18 31 0 0.0439493f
c19 28 0 0.0386232f
c20 26 0 0.221501f
c21 25 0 0.311262f
c22 22 0 0.225211f
c23 21 0 0.0267683f
c24 19 0 0.154691f
c25 15 0 0.0347961f
c26 13 0 0.139193f
c27 9 0 0.103932f
c28 2 0 0.0771162f
r29 91 107 0.0492329
r30 91 92 8
r31 88 92 0.1794
r32 74 95 8
r33 73 74 16.3327
r34 71 73 4.59
r35 69 78 8
r36 68 69 16.3327
r37 66 68 4.572
r38 62 107 0.04312
r39 62 106 0.02408
r40 60 106 0.0804445
r41 60 88 8
r42 59 91 16.3327
r43 59 62 16.3327
r44 59 60 16.3327
r45 57 59 1.53
r46 56 104 0.0881377
r47 54 104 0.0021
r48 54 103 0.0562333
r49 51 103 0.045007
r50 51 82 4
r51 50 56 16.3327
r52 50 54 16.3327
r53 50 51 16.3327
r54 48 50 1.524
r55 44 45 8
r56 36 95 0.38896
r57 36 37 0.0275239
r58 35 92 0.02444
r59 35 37 0.0275239
r60 34 45 0.2015
r61 30 82 0.24414
r62 29 32 0.06125
r63 29 31 0.04
r64 29 30 0.00508554
r65 28 78 0.21606
r66 27 33 0.0275239
r67 26 37 0.00715299
r68 26 27 0.7644
r69 25 34 0.0363174
r70 24 33 0.00715299
r71 24 25 1.0452
r72 22 33 0.0275239
r73 22 32 0.6838
r74 21 31 0.1781
r75 19 28 0.0363174
r76 18 21 0.0363174
r77 18 19 0.3549
r78 11 15 7.73958
r79 11 13 55.25
r80 7 15 7.73958
r81 7 9 31.5
r82 4 44 13.2552
r83 2 15 1.29764
r84 2 4 5.24681
.ends

.subckt PM_FINAL_ALL_V2_XI29.XI31.NET5 9 13 48 57 66 71
c0 106 0 0.0864526f
c1 104 0 0.100166f
c2 103 0 0.0967331f
c3 95 0 0.0906986f
c4 91 0 0.0960559f
c5 88 0 0.0126956f
c6 78 0 0.0361748f
c7 74 0 0.111925f
c8 69 0 0.0991547f
c9 68 0 0.00209149f
c10 62 0 0.0197266f
c11 53 0 0.0226833f
c12 45 0 0.0699388f
c13 44 0 0.118246f
c14 37 0 8.27575e-23
c15 34 0 0.0137122f
c16 33 0 0.0172215f
c17 32 0 0.00893518f
c18 31 0 0.0748649f
c19 29 0 0.0173208f
c20 28 0 0.230581f
c21 27 0 0.0779459f
c22 25 0 0.187271f
c23 22 0 0.105545f
c24 21 0 0.107886f
c25 19 0 0.0364898f
c26 18 0 0.0508652f
c27 15 0 0.0342742f
c28 13 0 0.145539f
c29 9 0 0.103905f
c30 2 0 0.0783412f
r31 91 107 0.0492329
r32 91 92 8
r33 88 92 0.1794
r34 77 103 0.0442092
r35 77 78 4
r36 74 95 8
r37 73 74 16.3327
r38 71 73 4.59
r39 69 82 8
r40 68 69 16.3327
r41 66 68 4.59
r42 62 107 0.04312
r43 62 106 0.02408
r44 60 106 0.0804445