************************************************************************
* auCdl Netlist:
* 
* Library Name:  vlsi
* Top Cell Name: Final_noSA
* View Name:     schematic
* Netlisted on:  Jan 16 20:32:49 2022
************************************************************************

*.BIPOLAR
*.RESI = 2000 
*.RESVAL
*.CAPVAL
*.DIOPERI
*.DIOAREA
*.EQUATION
*.SCALE METER
*.MEGA
.PARAM



************************************************************************
* Library Name: vlsi
* Cell Name:    and
* View Name:    schematic
************************************************************************

.SUBCKT and A B OUT VDD VSS
*.PININFO A:I B:I OUT:O VDD:B VSS:B
MM10 OUT net067 VSS VSS N_18 W=500.0n L=180.00n m=1
MM5 net44 B VSS VSS N_18 W=500.0n L=180.00n m=1
MM4 net067 A net44 VSS N_18 W=500.0n L=180.00n m=1
MM9 OUT net067 VDD VDD P_18 W=500.0n L=180.00n m=3
MM1 net067 A VDD VDD P_18 W=500.0n L=180.00n m=3
MM0 net067 B VDD VDD P_18 W=500.0n L=180.00n m=3
.ENDS

************************************************************************
* Library Name: vlsi
* Cell Name:    inverter
* View Name:    schematic
************************************************************************

.SUBCKT inverter IN OUT VDD VSS
*.PININFO IN:I OUT:B VDD:B VSS:B
MM10 OUT IN VSS VSS N_18 W=500.0n L=180.00n m=1
MM6 OUT IN VDD VDD P_18 W=1.5u L=180.00n m=1
.ENDS

************************************************************************
* Library Name: vlsi
* Cell Name:    buffer
* View Name:    schematic
************************************************************************

.SUBCKT buffer IN OUT VDD VSS
*.PININFO IN:I OUT:O VDD:B VSS:B
XI7 net14 OUT VDD VSS / inverter
XI5 IN net14 VDD VSS / inverter
.ENDS

************************************************************************
* Library Name: vlsi
* Cell Name:    tri_state
* View Name:    schematic
************************************************************************

.SUBCKT tri_state !en VDD VSS en input out
*.PININFO !en:I VDD:I VSS:I en:I input:I out:B
MM3 net5 en VSS VSS N_18 W=500.0n L=180.00n
MM2 out input net5 VSS N_18 W=500.0n L=180.00n
MM1 out input net12 VDD P_18 W=1.5u L=180.00n
MM0 net12 !en VDD VDD P_18 W=1.5u L=180.00n
.ENDS

************************************************************************
* Library Name: vlsi
* Cell Name:    Final_FF
* View Name:    schematic
************************************************************************

.SUBCKT Final_FF !c C D Q VDD VSS
*.PININFO !c:I C:I D:I Q:O VDD:B VSS:B
MM4 net5 C net14 VSS N_18 W=500.0n L=180.00n
MM2 net18 !c net13 VSS N_18 W=500.0n L=180.00n
MM3 net5 !c net14 VDD P_18 W=1.5u L=180.00n
MM0 net18 C net13 VDD P_18 W=1.5u L=180.00n
XI6 C VDD VSS !c net1 net5 / tri_state
XI5 !c VDD VSS C net14 net13 / tri_state
XI4 net1 Q VDD VSS / inverter
XI3 net5 net1 VDD VSS / inverter
XI1 net13 net14 VDD VSS / inverter
XI0 D net18 VDD VSS / inverter
.ENDS

************************************************************************
* Library Name: vlsi
* Cell Name:    timing_control2
* View Name:    schematic
************************************************************************

.SUBCKT timing_control2 A<0> A<1> A<2> A<3> A<4> A<5> A<6> A<7> A<8> CLK net108
+ VDD VSS net109 X_sel_FF<0> X_sel_FF<1> X_sel_FF<2> X_sel_FF<3> X_sel_FF<4> 
+ X_sel_FF<5> Y_sel_FF<0> Y_sel_FF<1> Y_sel_FF<2> 
*.PININFO A<0>:I A<1>:I A<2>:I A<3>:I A<4>:I A<5>:I A<6>:I A<7>:I A<8>:I CLK:I 
*.PININFO SAEN:O WL_EN:O X_sel_FF<0>:O X_sel_FF<1>:O X_sel_FF<2>:O 
*.PININFO X_sel_FF<3>:O X_sel_FF<4>:O X_sel_FF<5>:O Y_sel_FF<0>:O 
*.PININFO Y_sel_FF<1>:O Y_sel_FF<2>:O VDD:B VSS:B


XI60 net0110 net0154 VDD VSS / buffer

XI44 CLK net0145 VDD VSS / inverter
XI50 net0146 net094 VDD VSS / buffer
XI55 net0142 net098 VDD VSS / buffer

XI66 net102 net103 VDD VSS / buffer
XI56 net098 net099 VDD VSS / buffer
XI57 net099 net100 VDD VSS / buffer
XI58 net100 net101 VDD VSS / buffer
XI59 net101 net102 VDD VSS / buffer
XI67 net103 net104 VDD VSS / buffer
XI68 net104 net115 VDD VSS / buffer
XI69 net115 net106 VDD VSS / buffer
XI70 net106 net107 VDD VSS / buffer
XI71 net107 net108 VDD VSS / buffer


XI51 net094 net0102 VDD VSS / buffer
XI52 net0102 net0110 VDD VSS / buffer


XI47 net0130 net0126 VDD VSS / buffer
XI46 net113 net0130 VDD VSS / buffer
XI39 net109 net105 VDD VSS / buffer
XI38 CLK net109 VDD VSS / buffer
XI54 net0154 net0142 VDD VSS / buffer
XI49 net0150 net0146 VDD VSS / buffer
XI48 net0126 net0150 VDD VSS / buffer

XI40 net105 net113 VDD VSS / buffer
XI21 net0145 CLK A<8> X_sel_FF<5> VDD VSS / Final_FF
XI29 net0145 CLK A<5> X_sel_FF<2> VDD VSS / Final_FF
XI28 net0145 CLK A<7> X_sel_FF<4> VDD VSS / Final_FF
XI30 net0145 CLK A<6> X_sel_FF<3> VDD VSS / Final_FF
XI31 net0145 CLK A<2> Y_sel_FF<2> VDD VSS / Final_FF
XI32 net0145 CLK A<1> Y_sel_FF<1> VDD VSS / Final_FF
XI33 net0145 CLK A<3> X_sel_FF<0> VDD VSS / Final_FF
XI34 net0145 CLK A<4> X_sel_FF<1> VDD VSS / Final_FF
XI35 net0145 CLK A<0> Y_sel_FF<0> VDD VSS / Final_FF
.ENDS

************************************************************************
* Library Name: vlsi
* Cell Name:    SA_Final
* View Name:    schematic
************************************************************************

.SUBCKT SA_Final EN INN INP SO SON VDD VSS
*.PININFO EN:I INN:I INP:I SO:O SON:O VDD:B VSS:B
MM19 net096 EN VSS VSS N_18 W=500.0n L=180.00n m=4
MM17 SON SO net089 VSS N_18 W=500.0n L=180.00n m=1
MM18 net089 INP net096 VSS N_18 W=500.0n L=180.00n m=1
MM16 net093 INN net096 VSS N_18 W=500.0n L=180.00n m=1
MM15 SO SON net093 VSS N_18 W=500.0n L=180.00n m=1
MM13 SON SO VDD VDD P_18 W=500.0n L=180.00n m=1
MM12 SO SON VDD VDD P_18 W=500.0n L=180.00n m=1
MM9 SON EN VDD VDD P_18 W=500.0n L=180.00n m=1
MM11 SO EN VDD VDD P_18 W=500.0n L=180.00n m=1
.ENDS

************************************************************************
* Library Name: vlsi
* Cell Name:    nand4
* View Name:    schematic
************************************************************************

.SUBCKT nand4 A B C D OUT VDD VSS
*.PININFO A:I B:I C:I D:I OUT:O VDD:B VSS:B
MM11 net030 D VSS VSS N_18 W=500.0n L=180.00n m=1
MM6 net40 C net030 VSS N_18 W=500.0n L=180.00n m=1
MM5 net44 B net40 VSS N_18 W=500.0n L=180.00n m=1
MM4 OUT A net44 VSS N_18 W=500.0n L=180.00n m=1
MM12 OUT D VDD VDD P_18 W=500.0n L=180.00n m=3
MM10 OUT A VDD VDD P_18 W=500.0n L=180.00n m=3
MM2 OUT C VDD VDD P_18 W=500.0n L=180.00n m=3
MM0 OUT B VDD VDD P_18 W=500.0n L=180.00n m=3
.ENDS

************************************************************************
* Library Name: vlsi
* Cell Name:    3to8decoder_en
* View Name:    schematic
************************************************************************

.SUBCKT to8decoder_en A B C EN OUT0 OUT1 OUT2 OUT3 OUT4 OUT5 OUT6 OUT7 VDD VSS
*.PININFO A:I B:I C:I EN:I OUT0:O OUT1:O OUT2:O OUT3:O OUT4:O OUT5:O OUT6:O 
*.PININFO OUT7:O VDD:B VSS:B
XI7 A B C EN OUT7 VDD VSS / nand4
XI6 A B net0116 EN OUT6 VDD VSS / nand4
XI5 A net0105 C EN OUT5 VDD VSS / nand4
XI4 A net0105 net0116 EN OUT4 VDD VSS / nand4
XI3 net0158 B C EN OUT3 VDD VSS / nand4
XI2 net0158 B net0116 EN OUT2 VDD VSS / nand4
XI1 net0158 net0105 C EN OUT1 VDD VSS / nand4
XI0 net0158 net0105 net0116 EN OUT0 VDD VSS / nand4
XI11 B net0105 VDD VSS / inverter
XI10 C net0116 VDD VSS / inverter
XI8 A net0158 VDD VSS / inverter
.ENDS

************************************************************************
* Library Name: vlsi
* Cell Name:    TG
* View Name:    schematic
************************************************************************

.SUBCKT TG BL OUT SEL_B VDD VSS
*.PININFO BL:I SEL_B:I VDD:I VSS:I OUT:O
XI1 SEL_B net40 VDD VSS / inverter
MM1 BL net40 OUT VSS N_18 W=500.0n L=180.00n
MM0 BL SEL_B OUT VDD P_18 W=1.5u L=180.00n
.ENDS

************************************************************************
* Library Name: vlsi
* Cell Name:    YMUX
* View Name:    schematic
************************************************************************

.SUBCKT YMUX BL<0> BL<1> BL<2> BL<3> BL<4> BL<5> BL<6> BL<7> Dout VDD VSS 
+ Ysel<0> Ysel<1> Ysel<2> Ysel<3> Ysel<4> Ysel<5> Ysel<6> Ysel<7>
*.PININFO BL<0>:I BL<1>:I BL<2>:I BL<3>:I BL<4>:I BL<5>:I BL<6>:I BL<7>:I 
*.PININFO Ysel<0>:I Ysel<1>:I Ysel<2>:I Ysel<3>:I Ysel<4>:I Ysel<5>:I 
*.PININFO Ysel<6>:I Ysel<7>:I Dout:O VDD:B VSS:B
XI15 BL<4> Dout Ysel<4> VDD VSS / TG
XI18 BL<7> Dout Ysel<7> VDD VSS / TG
XI19 BL<3> Dout Ysel<3> VDD VSS / TG
XI20 BL<2> Dout Ysel<2> VDD VSS / TG
XI21 BL<1> Dout Ysel<1> VDD VSS / TG
XI22 BL<0> Dout Ysel<0> VDD VSS / TG
XI16 BL<5> Dout Ysel<5> VDD VSS / TG
XI17 BL<6> Dout Ysel<6> VDD VSS / TG
.ENDS

************************************************************************
* Library Name: vlsi
* Cell Name:    precharge
* View Name:    schematic
************************************************************************

.SUBCKT precharge BL<0> BL<1> BL<2> BL<3> BL<4> BL<5> BL<6> BL<7> BL<8> BL<9> 
+ BL<10> BL<11> BL<12> BL<13> BL<14> BL<15> VDD pre_b
*.PININFO BL<0>:I BL<1>:I BL<2>:I BL<3>:I BL<4>:I BL<5>:I BL<6>:I BL<7>:I 
*.PININFO BL<8>:I BL<9>:I BL<10>:I BL<11>:I BL<12>:I BL<13>:I BL<14>:I 
*.PININFO BL<15>:I VDD:I pre_b:I
MM8 BL<0> pre_b VDD VDD P_18 W=1.5u L=180n
MM9 BL<1> pre_b VDD VDD P_18 W=1.5u L=180n
MM10 BL<2> pre_b VDD VDD P_18 W=1.5u L=180n
MM11 BL<3> pre_b VDD VDD P_18 W=1.5u L=180n
MM12 BL<4> pre_b VDD VDD P_18 W=1.5u L=180n
MM13 BL<5> pre_b VDD VDD P_18 W=1.5u L=180n
MM14 BL<6> pre_b VDD VDD P_18 W=1.5u L=180n
MM15 BL<7> pre_b VDD VDD P_18 W=1.5u L=180n
MM7 BL<8> pre_b VDD VDD P_18 W=1.5u L=180n
MM6 BL<9> pre_b VDD VDD P_18 W=1.5u L=180n
MM5 BL<10> pre_b VDD VDD P_18 W=1.5u L=180n
MM4 BL<11> pre_b VDD VDD P_18 W=1.5u L=180n
MM3 BL<12> pre_b VDD VDD P_18 W=1.5u L=180n
MM2 BL<13> pre_b VDD VDD P_18 W=1.5u L=180n
MM1 BL<14> pre_b VDD VDD P_18 W=1.5u L=180n
MM0 BL<15> pre_b VDD VDD P_18 W=1.5u L=180n
.ENDS

************************************************************************
* Library Name: vlsi
* Cell Name:    ROM
* View Name:    schematic
************************************************************************

.SUBCKT ROM BL<0> BL<1> BL<2> BL<3> BL<4> BL<5> BL<6> BL<7> BL<8> BL<9> BL<10> 
+ BL<11> BL<12> BL<13> BL<14> BL<15> VSS WL<0> WL<1> WL<2> WL<3> WL<4> WL<5> 
+ WL<6> WL<7> WL<8> WL<9> WL<10> WL<11> WL<12> WL<13> WL<14> WL<15> WL<16> 
+ WL<17> WL<18> WL<19> WL<20> WL<21> WL<22> WL<23> WL<24> WL<25> WL<26> WL<27> 
+ WL<28> WL<29> WL<30> WL<31> WL<32> WL<33> WL<34> WL<35> WL<36> WL<37> WL<38> 
+ WL<39> WL<40> WL<41> WL<42> WL<43> WL<44> WL<45> WL<46> WL<47> WL<48> WL<49> 
+ WL<50> WL<51> WL<52> WL<53> WL<54> WL<55> WL<56> WL<57> WL<58> WL<59> WL<60> 
+ WL<61> WL<62> WL<63>
*.PININFO VSS:I WL<0>:I WL<1>:I WL<2>:I WL<3>:I WL<4>:I WL<5>:I WL<6>:I 
*.PININFO WL<7>:I WL<8>:I WL<9>:I WL<10>:I WL<11>:I WL<12>:I WL<13>:I WL<14>:I 
*.PININFO WL<15>:I WL<16>:I WL<17>:I WL<18>:I WL<19>:I WL<20>:I WL<21>:I 
*.PININFO WL<22>:I WL<23>:I WL<24>:I WL<25>:I WL<26>:I WL<27>:I WL<28>:I 
*.PININFO WL<29>:I WL<30>:I WL<31>:I WL<32>:I WL<33>:I WL<34>:I WL<35>:I 
*.PININFO WL<36>:I WL<37>:I WL<38>:I WL<39>:I WL<40>:I WL<41>:I WL<42>:I 
*.PININFO WL<43>:I WL<44>:I WL<45>:I WL<46>:I WL<47>:I WL<48>:I WL<49>:I 
*.PININFO WL<50>:I WL<51>:I WL<52>:I WL<53>:I WL<54>:I WL<55>:I WL<56>:I 
*.PININFO WL<57>:I WL<58>:I WL<59>:I WL<60>:I WL<61>:I WL<62>:I WL<63>:I 
*.PININFO BL<0>:O BL<1>:O BL<2>:O BL<3>:O BL<4>:O BL<5>:O BL<6>:O BL<7>:O 
*.PININFO BL<8>:O BL<9>:O BL<10>:O BL<11>:O BL<12>:O BL<13>:O BL<14>:O BL<15>:O
MM1565 VSS WL<8> net1712 VSS N_18 W=470n L=180.00n
MM1564 VSS WL<8> BL<1> VSS N_18 W=470n L=180.00n
MM1562 VSS WL<9> net1720 VSS N_18 W=470n L=180.00n
MM1558 VSS WL<9> BL<12> VSS N_18 W=470n L=180.00n
MM1549 VSS WL<8> net1728 VSS N_18 W=470n L=180.00n
MM1546 VSS WL<11> net1732 VSS N_18 W=470n L=180.00n
MM1544 VSS WL<8> BL<3> VSS N_18 W=470n L=180.00n
MM1542 VSS WL<11> BL<10> VSS N_18 W=470n L=180.00n
MM1541 VSS WL<9> net1744 VSS N_18 W=470n L=180.00n
MM1540 VSS WL<11> net1748 VSS N_18 W=470n L=180.00n
MM1539 VSS WL<9> BL<0> VSS N_18 W=470n L=180.00n
MM1538 VSS WL<9> BL<2> VSS N_18 W=470n L=180.00n
MM1537 VSS WL<9> net1760 VSS N_18 W=470n L=180.00n
MM1536 VSS WL<9> net1764 VSS N_18 W=470n L=180.00n
MM1535 VSS WL<9> BL<4> VSS N_18 W=470n L=180.00n
MM1534 VSS WL<9> BL<6> VSS N_18 W=470n L=180.00n
MM1533 VSS WL<9> net1776 VSS N_18 W=470n L=180.00n
MM1532 VSS WL<9> net1780 VSS N_18 W=470n L=180.00n
MM1531 VSS WL<9> BL<8> VSS N_18 W=470n L=180.00n
MM1530 VSS WL<9> BL<10> VSS N_18 W=470n L=180.00n
MM1529 VSS WL<8> BL<5> VSS N_18 W=470n L=180.00n
MM1528 VSS WL<8> net1796 VSS N_18 W=470n L=180.00n
MM1527 VSS WL<8> net1800 VSS N_18 W=470n L=180.00n
MM1526 VSS WL<8> BL<7> VSS N_18 W=470n L=180.00n
MM1524 VSS WL<8> BL<9> VSS N_18 W=470n L=180.00n
MM1523 VSS WL<8> net1812 VSS N_18 W=470n L=180.00n
MM1522 VSS WL<12> net1816 VSS N_18 W=470n L=180.00n
MM1521 VSS WL<12> BL<1> VSS N_18 W=470n L=180.00n
MM1520 VSS WL<12> net1824 VSS N_18 W=470n L=180.00n
MM1519 VSS WL<12> BL<3> VSS N_18 W=470n L=180.00n
MM1518 VSS WL<12> BL<5> VSS N_18 W=470n L=180.00n
MM1517 VSS WL<12> net1836 VSS N_18 W=470n L=180.00n
MM1516 VSS WL<12> net1840 VSS N_18 W=470n L=180.00n
MM1515 VSS WL<12> BL<7> VSS N_18 W=470n L=180.00n
MM1514 VSS WL<12> BL<9> VSS N_18 W=470n L=180.00n
MM1513 VSS WL<12> net1852 VSS N_18 W=470n L=180.00n
MM1512 VSS WL<12> net1856 VSS N_18 W=470n L=180.00n
MM1511 VSS WL<12> BL<11> VSS N_18 W=470n L=180.00n
MM1510 VSS WL<12> BL<13> VSS N_18 W=470n L=180.00n
MM1509 VSS WL<12> net1868 VSS N_18 W=470n L=180.00n
MM1508 VSS WL<12> net1872 VSS N_18 W=470n L=180.00n
MM1507 VSS WL<12> BL<15> VSS N_18 W=470n L=180.00n
MM1103 VSS WL<1> BL<14> VSS N_18 W=470n L=180.00n
MM1127 VSS WL<3> BL<8> VSS N_18 W=470n L=180.00n
MM1128 VSS WL<3> net1888 VSS N_18 W=470n L=180.00n
MM1129 VSS WL<3> net1892 VSS N_18 W=470n L=180.00n
MM1130 VSS WL<3> BL<6> VSS N_18 W=470n L=180.00n
MM1131 VSS WL<3> BL<4> VSS N_18 W=470n L=180.00n
MM1132 VSS WL<3> net1904 VSS N_18 W=470n L=180.00n
MM1133 VSS WL<3> net1908 VSS N_18 W=470n L=180.00n
MM1134 VSS WL<3> BL<2> VSS N_18 W=470n L=180.00n
MM1135 VSS WL<3> BL<0> VSS N_18 W=470n L=180.00n
MM1136 VSS WL<3> net1920 VSS N_18 W=470n L=180.00n
MM1144 VSS WL<3> BL<12> VSS N_18 W=470n L=180.00n
MM1148 VSS WL<3> net1928 VSS N_18 W=470n L=180.00n
MM1166 VSS WL<2> BL<15> VSS N_18 W=470n L=180.00n
MM1167 VSS WL<2> net1936 VSS N_18 W=470n L=180.00n
MM1168 VSS WL<2> net1940 VSS N_18 W=470n L=180.00n
MM1169 VSS WL<2> BL<13> VSS N_18 W=470n L=180.00n
MM1170 VSS WL<2> BL<11> VSS N_18 W=470n L=180.00n
MM1171 VSS WL<2> net1952 VSS N_18 W=470n L=180.00n
MM1172 VSS WL<2> net1956 VSS N_18 W=470n L=180.00n
MM1173 VSS WL<2> BL<9> VSS N_18 W=470n L=180.00n
MM1174 VSS WL<2> BL<7> VSS N_18 W=470n L=180.00n
MM1175 VSS WL<2> net1968 VSS N_18 W=470n L=180.00n
MM1176 VSS WL<2> net1972 VSS N_18 W=470n L=180.00n
MM1177 VSS WL<2> BL<5> VSS N_18 W=470n L=180.00n
MM1178 VSS WL<2> BL<3> VSS N_18 W=470n L=180.00n
MM1179 VSS WL<2> net1984 VSS N_18 W=470n L=180.00n
MM1180 VSS WL<2> BL<1> VSS N_18 W=470n L=180.00n
MM1181 VSS WL<2> net1992 VSS N_18 W=470n L=180.00n
MM1106 VSS WL<1> net1996 VSS N_18 W=470n L=180.00n
MM1798 VSS WL<27> net2000 VSS N_18 W=470n L=180.00n
MM1780 VSS WL<26> BL<15> VSS N_18 W=470n L=180.00n
MM1779 VSS WL<26> net2008 VSS N_18 W=470n L=180.00n
MM1778 VSS WL<26> net2012 VSS N_18 W=470n L=180.00n
MM1777 VSS WL<26> BL<13> VSS N_18 W=470n L=180.00n
MM1776 VSS WL<26> BL<11> VSS N_18 W=470n L=180.00n
MM1775 VSS WL<26> net2024 VSS N_18 W=470n L=180.00n
MM1774 VSS WL<26> net2028 VSS N_18 W=470n L=180.00n
MM1773 VSS WL<26> BL<9> VSS N_18 W=470n L=180.00n
MM1772 VSS WL<26> BL<7> VSS N_18 W=470n L=180.00n
MM1771 VSS WL<26> net2040 VSS N_18 W=470n L=180.00n
MM1770 VSS WL<26> net2044 VSS N_18 W=470n L=180.00n
MM1769 VSS WL<26> BL<5> VSS N_18 W=470n L=180.00n
MM1768 VSS WL<26> BL<3> VSS N_18 W=470n L=180.00n
MM1767 VSS WL<26> net2056 VSS N_18 W=470n L=180.00n
MM1766 VSS WL<26> BL<1> VSS N_18 W=470n L=180.00n
MM1765 VSS WL<26> net2064 VSS N_18 W=470n L=180.00n
MM1753 VSS WL<25> net2068 VSS N_18 W=470n L=180.00n
MM1744 VSS WL<24> BL<15> VSS N_18 W=470n L=180.00n
MM1743 VSS WL<24> net2076 VSS N_18 W=470n L=180.00n
MM1742 VSS WL<30> net2080 VSS N_18 W=470n L=180.00n
MM1741 VSS WL<30> BL<1> VSS N_18 W=470n L=180.00n
MM1740 VSS WL<30> net2088 VSS N_18 W=470n L=180.00n
MM1739 VSS WL<30> BL<3> VSS N_18 W=470n L=180.00n
MM1738 VSS WL<30> BL<5> VSS N_18 W=470n L=180.00n
MM1737 VSS WL<30> net2100 VSS N_18 W=470n L=180.00n
MM1736 VSS WL<30> net2104 VSS N_18 W=470n L=180.00n
MM1735 VSS WL<30> BL<7> VSS N_18 W=470n L=180.00n
MM1734 VSS WL<30> BL<9> VSS N_18 W=470n L=180.00n
MM1733 VSS WL<30> net2116 VSS N_18 W=470n L=180.00n
MM1732 VSS WL<30> net2120 VSS N_18 W=470n L=180.00n
MM1731 VSS WL<30> BL<11> VSS N_18 W=470n L=180.00n
MM1730 VSS WL<30> BL<13> VSS N_18 W=470n L=180.00n
MM1729 VSS WL<30> net2132 VSS N_18 W=470n L=180.00n
MM1728 VSS WL<30> net2136 VSS N_18 W=470n L=180.00n
MM1727 VSS WL<30> BL<15> VSS N_18 W=470n L=180.00n
MM1719 VSS WL<25> net2144 VSS N_18 W=470n L=180.00n
MM1708 VSS WL<31> net2148 VSS N_18 W=470n L=180.00n
MM1704 VSS WL<31> BL<12> VSS N_18 W=470n L=180.00n
MM1696 VSS WL<31> net2156 VSS N_18 W=470n L=180.00n
MM1695 VSS WL<31> BL<0> VSS N_18 W=470n L=180.00n
MM1694 VSS WL<31> BL<2> VSS N_18 W=470n L=180.00n
MM1693 VSS WL<31> net2168 VSS N_18 W=470n L=180.00n
MM1692 VSS WL<31> net2172 VSS N_18 W=470n L=180.00n
MM1691 VSS WL<31> BL<4> VSS N_18 W=470n L=180.00n
MM1690 VSS WL<31> BL<6> VSS N_18 W=470n L=180.00n
MM1689 VSS WL<31> net2184 VSS N_18 W=470n L=180.00n
MM1688 VSS WL<31> net2188 VSS N_18 W=470n L=180.00n
MM1687 VSS WL<31> BL<8> VSS N_18 W=470n L=180.00n
MM1686 VSS WL<31> BL<10> VSS N_18 W=470n L=180.00n
MM1684 VSS WL<31> net2200 VSS N_18 W=470n L=180.00n
MM1683 VSS WL<31> net2204 VSS N_18 W=470n L=180.00n
MM1679 VSS WL<31> BL<14> VSS N_18 W=470n L=180.00n
MM1676 VSS WL<29> BL<14> VSS N_18 W=470n L=180.00n
MM1672 VSS WL<29> net2216 VSS N_18 W=470n L=180.00n
MM1671 VSS WL<29> net2220 VSS N_18 W=470n L=180.00n
MM1670 VSS WL<24> net2224 VSS N_18 W=470n L=180.00n
MM1668 VSS WL<29> BL<10> VSS N_18 W=470n L=180.00n
MM1667 VSS WL<29> BL<8> VSS N_18 W=470n L=180.00n
MM1666 VSS WL<29> net2236 VSS N_18 W=470n L=180.00n
MM1665 VSS WL<24> BL<13> VSS N_18 W=470n L=180.00n
MM1664 VSS WL<29> net2244 VSS N_18 W=470n L=180.00n
MM1663 VSS WL<24> BL<11> VSS N_18 W=470n L=180.00n
MM1662 VSS WL<29> BL<6> VSS N_18 W=470n L=180.00n
MM1661 VSS WL<29> BL<4> VSS N_18 W=470n L=180.00n
MM1660 VSS WL<29> net2260 VSS N_18 W=470n L=180.00n
MM1659 VSS WL<24> net2264 VSS N_18 W=470n L=180.00n
MM1658 VSS WL<29> net2268 VSS N_18 W=470n L=180.00n
MM1657 VSS WL<29> BL<2> VSS N_18 W=470n L=180.00n
MM1656 VSS WL<29> BL<0> VSS N_18 W=470n L=180.00n
MM1655 VSS WL<29> net2280 VSS N_18 W=470n L=180.00n
MM1647 VSS WL<27> BL<14> VSS N_18 W=470n L=180.00n
MM1646 VSS WL<29> BL<12> VSS N_18 W=470n L=180.00n
MM1642 VSS WL<29> net2292 VSS N_18 W=470n L=180.00n
MM1624 VSS WL<28> BL<15> VSS N_18 W=470n L=180.00n
MM1623 VSS WL<28> net2300 VSS N_18 W=470n L=180.00n
MM1622 VSS WL<28> net2304 VSS N_18 W=470n L=180.00n
MM1621 VSS WL<28> BL<13> VSS N_18 W=470n L=180.00n
MM1620 VSS WL<28> BL<11> VSS N_18 W=470n L=180.00n
MM1619 VSS WL<28> net2316 VSS N_18 W=470n L=180.00n
MM1618 VSS WL<28> net2320 VSS N_18 W=470n L=180.00n
MM1617 VSS WL<28> BL<9> VSS N_18 W=470n L=180.00n
MM1616 VSS WL<28> BL<7> VSS N_18 W=470n L=180.00n
MM1615 VSS WL<28> net2332 VSS N_18 W=470n L=180.00n
MM1614 VSS WL<28> net2336 VSS N_18 W=470n L=180.00n
MM1613 VSS WL<28> BL<5> VSS N_18 W=470n L=180.00n
MM1612 VSS WL<28> BL<3> VSS N_18 W=470n L=180.00n
MM1611 VSS WL<28> net2348 VSS N_18 W=470n L=180.00n
MM1610 VSS WL<28> BL<1> VSS N_18 W=470n L=180.00n
MM1609 VSS WL<28> net2356 VSS N_18 W=470n L=180.00n
MM1608 VSS WL<24> net2360 VSS N_18 W=470n L=180.00n
MM1607 VSS WL<24> BL<9> VSS N_18 W=470n L=180.00n
MM1605 VSS WL<24> BL<7> VSS N_18 W=470n L=180.00n
MM1604 VSS WL<24> net2372 VSS N_18 W=470n L=180.00n
MM1603 VSS WL<24> net2376 VSS N_18 W=470n L=180.00n
MM1602 VSS WL<24> BL<5> VSS N_18 W=470n L=180.00n
MM1601 VSS WL<25> BL<10> VSS N_18 W=470n L=180.00n
MM1600 VSS WL<25> BL<8> VSS N_18 W=470n L=180.00n
MM1599 VSS WL<25> net2392 VSS N_18 W=470n L=180.00n
MM1598 VSS WL<25> net2396 VSS N_18 W=470n L=180.00n
MM1597 VSS WL<25> BL<6> VSS N_18 W=470n L=180.00n
MM1596 VSS WL<25> BL<4> VSS N_18 W=470n L=180.00n
MM1595 VSS WL<25> net2408 VSS N_18 W=470n L=180.00n
MM1594 VSS WL<25> net2412 VSS N_18 W=470n L=180.00n
MM1593 VSS WL<25> BL<2> VSS N_18 W=470n L=180.00n
MM1592 VSS WL<25> BL<0> VSS N_18 W=470n L=180.00n
MM1591 VSS WL<27> net2424 VSS N_18 W=470n L=180.00n
MM1590 VSS WL<25> net2428 VSS N_18 W=470n L=180.00n
MM1589 VSS WL<27> BL<10> VSS N_18 W=470n L=180.00n
MM1587 VSS WL<24> BL<3> VSS N_18 W=470n L=180.00n
MM1585 VSS WL<27> net2440 VSS N_18 W=470n L=180.00n
MM1582 VSS WL<24> net2444 VSS N_18 W=470n L=180.00n
MM1573 VSS WL<25> BL<12> VSS N_18 W=470n L=180.00n
MM1569 VSS WL<25> net2452 VSS N_18 W=470n L=180.00n
MM1567 VSS WL<24> BL<1> VSS N_18 W=470n L=180.00n
MM1566 VSS WL<24> net2460 VSS N_18 W=470n L=180.00n
MM2077 VSS WL<16> net2464 VSS N_18 W=470n L=180.00n
MM2076 VSS WL<16> BL<1> VSS N_18 W=470n L=180.00n
MM2074 VSS WL<17> net2472 VSS N_18 W=470n L=180.00n
MM2070 VSS WL<17> BL<12> VSS N_18 W=470n L=180.00n
MM2061 VSS WL<16> net2480 VSS N_18 W=470n L=180.00n
MM2058 VSS WL<19> net2484 VSS N_18 W=470n L=180.00n
MM2056 VSS WL<16> BL<3> VSS N_18 W=470n L=180.00n
MM2054 VSS WL<19> BL<10> VSS N_18 W=470n L=180.00n
MM2053 VSS WL<17> net2496 VSS N_18 W=470n L=180.00n
MM2052 VSS WL<19> net2500 VSS N_18 W=470n L=180.00n
MM2051 VSS WL<17> BL<0> VSS N_18 W=470n L=180.00n
MM2050 VSS WL<17> BL<2> VSS N_18 W=470n L=180.00n
MM2049 VSS WL<17> net2512 VSS N_18 W=470n L=180.00n
MM2048 VSS WL<17> net2516 VSS N_18 W=470n L=180.00n
MM2047 VSS WL<17> BL<4> VSS N_18 W=470n L=180.00n
MM2046 VSS WL<17> BL<6> VSS N_18 W=470n L=180.00n
MM2045 VSS WL<17> net2528 VSS N_18 W=470n L=180.00n
MM2044 VSS WL<17> net2532 VSS N_18 W=470n L=180.00n
MM2043 VSS WL<17> BL<8> VSS N_18 W=470n L=180.00n
MM2042 VSS WL<17> BL<10> VSS N_18 W=470n L=180.00n
MM2041 VSS WL<16> BL<5> VSS N_18 W=470n L=180.00n
MM2040 VSS WL<16> net2548 VSS N_18 W=470n L=180.00n
MM2039 VSS WL<16> net2552 VSS N_18 W=470n L=180.00n
MM2038 VSS WL<16> BL<7> VSS N_18 W=470n L=180.00n
MM2036 VSS WL<16> BL<9> VSS N_18 W=470n L=180.00n
MM2035 VSS WL<16> net2564 VSS N_18 W=470n L=180.00n
MM2034 VSS WL<20> net02592 VSS N_18 W=470n L=180.00n
MM2033 VSS WL<20> BL<1> VSS N_18 W=470n L=180.00n
MM2032 VSS WL<20> net02600 VSS N_18 W=470n L=180.00n
MM2031 VSS WL<20> BL<3> VSS N_18 W=470n L=180.00n
MM2030 VSS WL<20> BL<5> VSS N_18 W=470n L=180.00n
MM2029 VSS WL<20> net02612 VSS N_18 W=470n L=180.00n
MM2028 VSS WL<20> net02616 VSS N_18 W=470n L=180.00n
MM2027 VSS WL<20> BL<7> VSS N_18 W=470n L=180.00n
MM2026 VSS WL<20> BL<9> VSS N_18 W=470n L=180.00n
MM2025 VSS WL<20> net02628 VSS N_18 W=470n L=180.00n
MM2024 VSS WL<20> net02632 VSS N_18 W=470n L=180.00n
MM2023 VSS WL<20> BL<11> VSS N_18 W=470n L=180.00n
MM2022 VSS WL<20> BL<13> VSS N_18 W=470n L=180.00n
MM2021 VSS WL<20> net02644 VSS N_18 W=470n L=180.00n
MM2020 VSS WL<20> net02641 VSS N_18 W=470n L=180.00n
MM2019 VSS WL<20> BL<15> VSS N_18 W=470n L=180.00n
MM2001 VSS WL<21> net2632 VSS N_18 W=470n L=180.00n
MM1997 VSS WL<21> BL<12> VSS N_18 W=470n L=180.00n
MM1996 VSS WL<19> BL<14> VSS N_18 W=470n L=180.00n
MM1988 VSS WL<21> net2644 VSS N_18 W=470n L=180.00n
MM1987 VSS WL<21> BL<0> VSS N_18 W=470n L=180.00n
MM1986 VSS WL<21> BL<2> VSS N_18 W=470n L=180.00n
MM1985 VSS WL<21> net2656 VSS N_18 W=470n L=180.00n
MM1984 VSS WL<16> net2660 VSS N_18 W=470n L=180.00n
MM1983 VSS WL<21> net2664 VSS N_18 W=470n L=180.00n
MM1982 VSS WL<21> BL<4> VSS N_18 W=470n L=180.00n
MM1981 VSS WL<21> BL<6> VSS N_18 W=470n L=180.00n
MM1980 VSS WL<16> BL<11> VSS N_18 W=470n L=180.00n
MM1979 VSS WL<21> net2680 VSS N_18 W=470n L=180.00n
MM1978 VSS WL<16> BL<13> VSS N_18 W=470n L=180.00n
MM1977 VSS WL<21> net2688 VSS N_18 W=470n L=180.00n
MM1976 VSS WL<21> BL<8> VSS N_18 W=470n L=180.00n
MM1975 VSS WL<21> BL<10> VSS N_18 W=470n L=180.00n
MM1973 VSS WL<16> net2700 VSS N_18 W=470n L=180.00n
MM1972 VSS WL<21> net2704 VSS N_18 W=470n L=180.00n
MM1971 VSS WL<21> net2708 VSS N_18 W=470n L=180.00n
MM1967 VSS WL<21> BL<14> VSS N_18 W=470n L=180.00n
MM1964 VSS WL<23> BL<14> VSS N_18 W=470n L=180.00n
MM1960 VSS WL<23> net2720 VSS N_18 W=470n L=180.00n
MM1959 VSS WL<23> net2724 VSS N_18 W=470n L=180.00n
MM1957 VSS WL<23> BL<10> VSS N_18 W=470n L=180.00n
MM1956 VSS WL<23> BL<8> VSS N_18 W=470n L=180.00n
MM1955 VSS WL<23> net2736 VSS N_18 W=470n L=180.00n
MM1954 VSS WL<23> net2740 VSS N_18 W=470n L=180.00n
MM1953 VSS WL<23> BL<6> VSS N_18 W=470n L=180.00n
MM1952 VSS WL<23> BL<4> VSS N_18 W=470n L=180.00n
MM1951 VSS WL<23> net2752 VSS N_18 W=470n L=180.00n
MM1950 VSS WL<23> net2756 VSS N_18 W=470n L=180.00n
MM1949 VSS WL<23> BL<2> VSS N_18 W=470n L=180.00n
MM1948 VSS WL<23> BL<0> VSS N_18 W=470n L=180.00n
MM1947 VSS WL<23> net2768 VSS N_18 W=470n L=180.00n
MM1939 VSS WL<23> BL<12> VSS N_18 W=470n L=180.00n
MM1935 VSS WL<23> net2776 VSS N_18 W=470n L=180.00n
MM1924 VSS WL<17> net2780 VSS N_18 W=470n L=180.00n
MM1916 VSS WL<22> BL<15> VSS N_18 W=470n L=180.00n
MM1915 VSS WL<22> net2788 VSS N_18 W=470n L=180.00n
MM1914 VSS WL<22> net2792 VSS N_18 W=470n L=180.00n
MM1913 VSS WL<22> BL<13> VSS N_18 W=470n L=180.00n
MM1912 VSS WL<22> BL<11> VSS N_18 W=470n L=180.00n
MM1911 VSS WL<22> net2804 VSS N_18 W=470n L=180.00n
MM1910 VSS WL<22> net2808 VSS N_18 W=470n L=180.00n
MM1909 VSS WL<22> BL<9> VSS N_18 W=470n L=180.00n
MM1908 VSS WL<22> BL<7> VSS N_18 W=470n L=180.00n
MM1907 VSS WL<22> net2820 VSS N_18 W=470n L=180.00n
MM1906 VSS WL<22> net2824 VSS N_18 W=470n L=180.00n
MM1905 VSS WL<22> BL<5> VSS N_18 W=470n L=180.00n
MM1904 VSS WL<22> BL<3> VSS N_18 W=470n L=180.00n
MM1903 VSS WL<22> net2836 VSS N_18 W=470n L=180.00n
MM1902 VSS WL<22> BL<1> VSS N_18 W=470n L=180.00n
MM1901 VSS WL<22> net2844 VSS N_18 W=470n L=180.00n
MM1900 VSS WL<16> net2848 VSS N_18 W=470n L=180.00n
MM1899 VSS WL<16> BL<15> VSS N_18 W=470n L=180.00n
MM1890 VSS WL<17> net2856 VSS N_18 W=470n L=180.00n
MM1878 VSS WL<18> net2860 VSS N_18 W=470n L=180.00n
MM1877 VSS WL<18> BL<1> VSS N_18 W=470n L=180.00n
MM1876 VSS WL<18> net2868 VSS N_18 W=470n L=180.00n
MM1875 VSS WL<18> BL<3> VSS N_18 W=470n L=180.00n
MM1874 VSS WL<18> BL<5> VSS N_18 W=470n L=180.00n
MM1873 VSS WL<18> net2880 VSS N_18 W=470n L=180.00n
MM1872 VSS WL<18> net2884 VSS N_18 W=470n L=180.00n
MM1871 VSS WL<18> BL<7> VSS N_18 W=470n L=180.00n
MM1870 VSS WL<18> BL<9> VSS N_18 W=470n L=180.00n
MM1869 VSS WL<18> net2896 VSS N_18 W=470n L=180.00n
MM1868 VSS WL<18> net2900 VSS N_18 W=470n L=180.00n
MM1867 VSS WL<18> BL<11> VSS N_18 W=470n L=180.00n
MM1866 VSS WL<18> BL<13> VSS N_18 W=470n L=180.00n
MM1865 VSS WL<18> net2912 VSS N_18 W=470n L=180.00n
MM1864 VSS WL<18> net2916 VSS N_18 W=470n L=180.00n
MM1863 VSS WL<18> BL<15> VSS N_18 W=470n L=180.00n
MM1845 VSS WL<19> net2924 VSS N_18 W=470n L=180.00n
MM1841 VSS WL<19> BL<12> VSS N_18 W=470n L=180.00n
MM1833 VSS WL<19> net2932 VSS N_18 W=470n L=180.00n
MM1832 VSS WL<19> BL<0> VSS N_18 W=470n L=180.00n
MM1831 VSS WL<19> BL<2> VSS N_18 W=470n L=180.00n
MM1830 VSS WL<19> net2944 VSS N_18 W=470n L=180.00n
MM1829 VSS WL<19> net2948 VSS N_18 W=470n L=180.00n
MM1828 VSS WL<19> BL<4> VSS N_18 W=470n L=180.00n
MM1827 VSS WL<19> BL<6> VSS N_18 W=470n L=180.00n
MM1826 VSS WL<19> net2960 VSS N_18 W=470n L=180.00n
MM1825 VSS WL<19> net2964 VSS N_18 W=470n L=180.00n
MM1824 VSS WL<19> BL<8> VSS N_18 W=470n L=180.00n
MM1823 VSS WL<17> BL<14> VSS N_18 W=470n L=180.00n
MM1820 VSS WL<25> BL<14> VSS N_18 W=470n L=180.00n
MM1819 VSS WL<27> BL<8> VSS N_18 W=470n L=180.00n
MM1818 VSS WL<27> net2984 VSS N_18 W=470n L=180.00n
MM1817 VSS WL<27> net2988 VSS N_18 W=470n L=180.00n
MM1816 VSS WL<27> BL<6> VSS N_18 W=470n L=180.00n
MM1815 VSS WL<27> BL<4> VSS N_18 W=470n L=180.00n
MM1814 VSS WL<27> net3000 VSS N_18 W=470n L=180.00n
MM1813 VSS WL<27> net3004 VSS N_18 W=470n L=180.00n
MM1812 VSS WL<27> BL<2> VSS N_18 W=470n L=180.00n
MM1811 VSS WL<27> BL<0> VSS N_18 W=470n L=180.00n
MM1810 VSS WL<27> net3016 VSS N_18 W=470n L=180.00n
MM1802 VSS WL<27> BL<12> VSS N_18 W=470n L=180.00n
MM1069 VSS WL<0> BL<15> VSS N_18 W=470n L=180.00n
MM1068 VSS WL<0> net3028 VSS N_18 W=470n L=180.00n
MM1182 VSS WL<6> net3032 VSS N_18 W=470n L=180.00n
MM1183 VSS WL<6> BL<1> VSS N_18 W=470n L=180.00n
MM1184 VSS WL<6> net3040 VSS N_18 W=470n L=180.00n
MM1185 VSS WL<6> BL<3> VSS N_18 W=470n L=180.00n
MM1186 VSS WL<6> BL<5> VSS N_18 W=470n L=180.00n
MM1187 VSS WL<6> net3052 VSS N_18 W=470n L=180.00n
MM1188 VSS WL<6> net3056 VSS N_18 W=470n L=180.00n
MM1189 VSS WL<6> BL<7> VSS N_18 W=470n L=180.00n
MM1190 VSS WL<6> BL<9> VSS N_18 W=470n L=180.00n
MM1191 VSS WL<6> net3068 VSS N_18 W=470n L=180.00n
MM1192 VSS WL<6> net3072 VSS N_18 W=470n L=180.00n
MM1193 VSS WL<6> BL<11> VSS N_18 W=470n L=180.00n
MM1194 VSS WL<6> BL<13> VSS N_18 W=470n L=180.00n
MM1195 VSS WL<6> net3084 VSS N_18 W=470n L=180.00n
MM1196 VSS WL<6> net3088 VSS N_18 W=470n L=180.00n
MM1197 VSS WL<6> BL<15> VSS N_18 W=470n L=180.00n
MM1105 VSS WL<1> net3096 VSS N_18 W=470n L=180.00n
MM1215 VSS WL<7> net3100 VSS N_18 W=470n L=180.00n
MM1219 VSS WL<7> BL<12> VSS N_18 W=470n L=180.00n
MM1227 VSS WL<7> net3108 VSS N_18 W=470n L=180.00n
MM1228 VSS WL<7> BL<0> VSS N_18 W=470n L=180.00n
MM1229 VSS WL<7> BL<2> VSS N_18 W=470n L=180.00n
MM1230 VSS WL<7> net3120 VSS N_18 W=470n L=180.00n
MM1231 VSS WL<7> net3124 VSS N_18 W=470n L=180.00n
MM1232 VSS WL<7> BL<4> VSS N_18 W=470n L=180.00n
MM1233 VSS WL<7> BL<6> VSS N_18 W=470n L=180.00n
MM1234 VSS WL<7> net3136 VSS N_18 W=470n L=180.00n
MM1235 VSS WL<7> net3140 VSS N_18 W=470n L=180.00n
MM1236 VSS WL<7> BL<8> VSS N_18 W=470n L=180.00n
MM1237 VSS WL<7> BL<10> VSS N_18 W=470n L=180.00n
MM1239 VSS WL<7> net3152 VSS N_18 W=470n L=180.00n
MM1240 VSS WL<7> net3156 VSS N_18 W=470n L=180.00n
MM1244 VSS WL<7> BL<14> VSS N_18 W=470n L=180.00n
MM1247 VSS WL<5> BL<14> VSS N_18 W=470n L=180.00n