************************************************************************
* auCdl Netlist:
* 
* Library Name:  vlsi
* Top Cell Name: ROM2
* View Name:     schematic
* Netlisted on:  Jan  6 18:04:32 2022
************************************************************************

*.BIPOLAR
*.RESI = 2000 
*.RESVAL
*.CAPVAL
*.DIOPERI
*.DIOAREA
*.EQUATION
*.SCALE METER
*.MEGA
.PARAM



************************************************************************
* Library Name: vlsi
* Cell Name:    ROM2
* View Name:    schematic
************************************************************************

.SUBCKT ROM2 BL<0> BL<1> BL<2> BL<3> BL<4> BL<5> BL<6> BL<7> BL<8> BL<9> 
+ BL<10> BL<11> BL<12> BL<13> BL<14> BL<15> VSS WL<0> WL<1> WL<2> WL<3> WL<4> 
+ WL<5> WL<6> WL<7> WL<8> WL<9> WL<10> WL<11> WL<12> WL<13> WL<14> WL<15> 
+ WL<16> WL<17> WL<18> WL<19> WL<20> WL<21> WL<22> WL<23> WL<24> WL<25> WL<26> 
+ WL<27> WL<28> WL<29> WL<30> WL<31> WL<32> WL<33> WL<34> WL<35> WL<36> WL<37> 
+ WL<38> WL<39> WL<40> WL<41> WL<42> WL<43> WL<44> WL<45> WL<46> WL<47> WL<48> 
+ WL<49> WL<50> WL<51> WL<52> WL<53> WL<54> WL<55> WL<56> WL<57> WL<58> WL<59> 
+ WL<60> WL<61> WL<62> WL<63>
*.PININFO VSS:I WL<0>:I WL<1>:I WL<2>:I WL<3>:I WL<4>:I WL<5>:I WL<6>:I 
*.PININFO WL<7>:I WL<8>:I WL<9>:I WL<10>:I WL<11>:I WL<12>:I WL<13>:I WL<14>:I 
*.PININFO WL<15>:I WL<16>:I WL<17>:I WL<18>:I WL<19>:I WL<20>:I WL<21>:I 
*.PININFO WL<22>:I WL<23>:I WL<24>:I WL<25>:I WL<26>:I WL<27>:I WL<28>:I 
*.PININFO WL<29>:I WL<30>:I WL<31>:I WL<32>:I WL<33>:I WL<34>:I WL<35>:I 
*.PININFO WL<36>:I WL<37>:I WL<38>:I WL<39>:I WL<40>:I WL<41>:I WL<42>:I 
*.PININFO WL<43>:I WL<44>:I WL<45>:I WL<46>:I WL<47>:I WL<48>:I WL<49>:I 
*.PININFO WL<50>:I WL<51>:I WL<52>:I WL<53>:I WL<54>:I WL<55>:I WL<56>:I 
*.PININFO WL<57>:I WL<58>:I WL<59>:I WL<60>:I WL<61>:I WL<62>:I WL<63>:I 
*.PININFO BL<0>:O BL<1>:O BL<2>:O BL<3>:O BL<4>:O BL<5>:O BL<6>:O BL<7>:O 
*.PININFO BL<8>:O BL<9>:O BL<10>:O BL<11>:O BL<12>:O BL<13>:O BL<14>:O BL<15>:O
MM1565 VSS WL<8> net1712 VSS N_18 W=470n L=180.00n
MM1564 VSS WL<8> BL<1> VSS N_18 W=470n L=180.00n
MM1562 VSS WL<9> net1720 VSS N_18 W=470n L=180.00n
MM1558 VSS WL<9> BL<12> VSS N_18 W=470n L=180.00n
MM1549 VSS WL<8> net1728 VSS N_18 W=470n L=180.00n
MM1546 VSS WL<11> net1732 VSS N_18 W=470n L=180.00n
MM1544 VSS WL<8> BL<3> VSS N_18 W=470n L=180.00n
MM1542 VSS WL<11> BL<10> VSS N_18 W=470n L=180.00n
MM1541 VSS WL<9> net1744 VSS N_18 W=470n L=180.00n
MM1540 VSS WL<11> net1748 VSS N_18 W=470n L=180.00n
MM1539 VSS WL<9> BL<0> VSS N_18 W=470n L=180.00n
MM1538 VSS WL<9> BL<2> VSS N_18 W=470n L=180.00n
MM1537 VSS WL<9> net1760 VSS N_18 W=470n L=180.00n
MM1536 VSS WL<9> net1764 VSS N_18 W=470n L=180.00n
MM1535 VSS WL<9> BL<4> VSS N_18 W=470n L=180.00n
MM1534 VSS WL<9> BL<6> VSS N_18 W=470n L=180.00n
MM1533 VSS WL<9> net1776 VSS N_18 W=470n L=180.00n
MM1532 VSS WL<9> net1780 VSS N_18 W=470n L=180.00n
MM1531 VSS WL<9> BL<8> VSS N_18 W=470n L=180.00n
MM1530 VSS WL<9> BL<10> VSS N_18 W=470n L=180.00n
MM1529 VSS WL<8> BL<5> VSS N_18 W=470n L=180.00n
MM1528 VSS WL<8> net1796 VSS N_18 W=470n L=180.00n
MM1527 VSS WL<8> net1800 VSS N_18 W=470n L=180.00n
MM1526 VSS WL<8> BL<7> VSS N_18 W=470n L=180.00n
MM1524 VSS WL<8> BL<9> VSS N_18 W=470n L=180.00n
MM1523 VSS WL<8> net1812 VSS N_18 W=470n L=180.00n
MM1522 VSS WL<12> net1816 VSS N_18 W=470n L=180.00n
MM1521 VSS WL<12> BL<1> VSS N_18 W=470n L=180.00n
MM1520 VSS WL<12> net1824 VSS N_18 W=470n L=180.00n
MM1519 VSS WL<12> BL<3> VSS N_18 W=470n L=180.00n
MM1518 VSS WL<12> BL<5> VSS N_18 W=470n L=180.00n
MM1517 VSS WL<12> net1836 VSS N_18 W=470n L=180.00n
MM1516 VSS WL<12> net1840 VSS N_18 W=470n L=180.00n
MM1515 VSS WL<12> BL<7> VSS N_18 W=470n L=180.00n
MM1514 VSS WL<12> BL<9> VSS N_18 W=470n L=180.00n
MM1513 VSS WL<12> net1852 VSS N_18 W=470n L=180.00n
MM1512 VSS WL<12> net1856 VSS N_18 W=470n L=180.00n
MM1511 VSS WL<12> BL<11> VSS N_18 W=470n L=180.00n
MM1510 VSS WL<12> BL<13> VSS N_18 W=470n L=180.00n
MM1509 VSS WL<12> net1868 VSS N_18 W=470n L=180.00n
MM1508 VSS WL<12> net1872 VSS N_18 W=470n L=180.00n
MM1507 VSS WL<12> BL<15> VSS N_18 W=470n L=180.00n
MM1103 VSS WL<1> BL<14> VSS N_18 W=470n L=180.00n
MM1127 VSS WL<3> BL<8> VSS N_18 W=470n L=180.00n
MM1128 VSS WL<3> net1888 VSS N_18 W=470n L=180.00n
MM1129 VSS WL<3> net1892 VSS N_18 W=470n L=180.00n
MM1130 VSS WL<3> BL<6> VSS N_18 W=470n L=180.00n
MM1131 VSS WL<3> BL<4> VSS N_18 W=470n L=180.00n
MM1132 VSS WL<3> net1904 VSS N_18 W=470n L=180.00n
MM1133 VSS WL<3> net1908 VSS N_18 W=470n L=180.00n
MM1134 VSS WL<3> BL<2> VSS N_18 W=470n L=180.00n
MM1135 VSS WL<3> BL<0> VSS N_18 W=470n L=180.00n
MM1136 VSS WL<3> net1920 VSS N_18 W=470n L=180.00n
MM1144 VSS WL<3> BL<12> VSS N_18 W=470n L=180.00n
MM1148 VSS WL<3> net1928 VSS N_18 W=470n L=180.00n
MM1166 VSS WL<2> BL<15> VSS N_18 W=470n L=180.00n
MM1167 VSS WL<2> net1936 VSS N_18 W=470n L=180.00n
MM1168 VSS WL<2> net1940 VSS N_18 W=470n L=180.00n
MM1169 VSS WL<2> BL<13> VSS N_18 W=470n L=180.00n
MM1170 VSS WL<2> BL<11> VSS N_18 W=470n L=180.00n
MM1171 VSS WL<2> net1952 VSS N_18 W=470n L=180.00n
MM1172 VSS WL<2> net1956 VSS N_18 W=470n L=180.00n
MM1173 VSS WL<2> BL<9> VSS N_18 W=470n L=180.00n
MM1174 VSS WL<2> BL<7> VSS N_18 W=470n L=180.00n
MM1175 VSS WL<2> net1968 VSS N_18 W=470n L=180.00n
MM1176 VSS WL<2> net1972 VSS N_18 W=470n L=180.00n
MM1177 VSS WL<2> BL<5> VSS N_18 W=470n L=180.00n
MM1178 VSS WL<2> BL<3> VSS N_18 W=470n L=180.00n
MM1179 VSS WL<2> net1984 VSS N_18 W=470n L=180.00n
MM1180 VSS WL<2> BL<1> VSS N_18 W=470n L=180.00n
MM1181 VSS WL<2> net1992 VSS N_18 W=470n L=180.00n
MM1106 VSS WL<1> net1996 VSS N_18 W=470n L=180.00n
MM1798 VSS WL<27> net2000 VSS N_18 W=470n L=180.00n
MM1780 VSS WL<26> BL<15> VSS N_18 W=470n L=180.00n
MM1779 VSS WL<26> net2008 VSS N_18 W=470n L=180.00n
MM1778 VSS WL<26> net2012 VSS N_18 W=470n L=180.00n
MM1777 VSS WL<26> BL<13> VSS N_18 W=470n L=180.00n
MM1776 VSS WL<26> BL<11> VSS N_18 W=470n L=180.00n
MM1775 VSS WL<26> net2024 VSS N_18 W=470n L=180.00n
MM1774 VSS WL<26> net2028 VSS N_18 W=470n L=180.00n
MM1773 VSS WL<26> BL<9> VSS N_18 W=470n L=180.00n
MM1772 VSS WL<26> BL<7> VSS N_18 W=470n L=180.00n
MM1771 VSS WL<26> net2040 VSS N_18 W=470n L=180.00n
MM1770 VSS WL<26> net2044 VSS N_18 W=470n L=180.00n
MM1769 VSS WL<26> BL<5> VSS N_18 W=470n L=180.00n
MM1768 VSS WL<26> BL<3> VSS N_18 W=470n L=180.00n
MM1767 VSS WL<26> net2056 VSS N_18 W=470n L=180.00n
MM1766 VSS WL<26> BL<1> VSS N_18 W=470n L=180.00n
MM1765 VSS WL<26> net2064 VSS N_18 W=470n L=180.00n
MM1753 VSS WL<25> net2068 VSS N_18 W=470n L=180.00n
MM1744 VSS WL<24> BL<15> VSS N_18 W=470n L=180.00n
MM1743 VSS WL<24> net2076 VSS N_18 W=470n L=180.00n
MM1742 VSS WL<30> net2080 VSS N_18 W=470n L=180.00n
MM1741 VSS WL<30> BL<1> VSS N_18 W=470n L=180.00n
MM1740 VSS WL<30> net2088 VSS N_18 W=470n L=180.00n
MM1739 VSS WL<30> BL<3> VSS N_18 W=470n L=180.00n
MM1738 VSS WL<30> BL<5> VSS N_18 W=470n L=180.00n
MM1737 VSS WL<30> net2100 VSS N_18 W=470n L=180.00n
MM1736 VSS WL<30> net2104 VSS N_18 W=470n L=180.00n
MM1735 VSS WL<30> BL<7> VSS N_18 W=470n L=180.00n
MM1734 VSS WL<30> BL<9> VSS N_18 W=470n L=180.00n
MM1733 VSS WL<30> net2116 VSS N_18 W=470n L=180.00n
MM1732 VSS WL<30> net2120 VSS N_18 W=470n L=180.00n
MM1731 VSS WL<30> BL<11> VSS N_18 W=470n L=180.00n
MM1730 VSS WL<30> BL<13> VSS N_18 W=470n L=180.00n
MM1729 VSS WL<30> net2132 VSS N_18 W=470n L=180.00n
MM1728 VSS WL<30> net2136 VSS N_18 W=470n L=180.00n
MM1727 VSS WL<30> BL<15> VSS N_18 W=470n L=180.00n
MM1719 VSS WL<25> net2144 VSS N_18 W=470n L=180.00n
MM1708 VSS WL<31> net2148 VSS N_18 W=470n L=180.00n
MM1704 VSS WL<31> BL<12> VSS N_18 W=470n L=180.00n
MM1696 VSS WL<31> net2156 VSS N_18 W=470n L=180.00n
MM1695 VSS WL<31> BL<0> VSS N_18 W=470n L=180.00n
MM1694 VSS WL<31> BL<2> VSS N_18 W=470n L=180.00n
MM1693 VSS WL<31> net2168 VSS N_18 W=470n L=180.00n
MM1692 VSS WL<31> net2172 VSS N_18 W=470n L=180.00n
MM1691 VSS WL<31> BL<4> VSS N_18 W=470n L=180.00n
MM1690 VSS WL<31> BL<6> VSS N_18 W=470n L=180.00n
MM1689 VSS WL<31> net2184 VSS N_18 W=470n L=180.00n
MM1688 VSS WL<31> net2188 VSS N_18 W=470n L=180.00n
MM1687 VSS WL<31> BL<8> VSS N_18 W=470n L=180.00n
MM1686 VSS WL<31> BL<10> VSS N_18 W=470n L=180.00n
MM1684 VSS WL<31> net2200 VSS N_18 W=470n L=180.00n
MM1683 VSS WL<31> net2204 VSS N_18 W=470n L=180.00n
MM1679 VSS WL<31> BL<14> VSS N_18 W=470n L=180.00n
MM1676 VSS WL<29> BL<14> VSS N_18 W=470n L=180.00n
MM1672 VSS WL<29> net2216 VSS N_18 W=470n L=180.00n
MM1671 VSS WL<29> net2220 VSS N_18 W=470n L=180.00n
MM1670 VSS WL<24> net2224 VSS N_18 W=470n L=180.00n
MM1668 VSS WL<29> BL<10> VSS N_18 W=470n L=180.00n
MM1667 VSS WL<29> BL<8> VSS N_18 W=470n L=180.00n
MM1666 VSS WL<29> net2236 VSS N_18 W=470n L=180.00n
MM1665 VSS WL<24> BL<13> VSS N_18 W=470n L=180.00n
MM1664 VSS WL<29> net2244 VSS N_18 W=470n L=180.00n
MM1663 VSS WL<24> BL<11> VSS N_18 W=470n L=180.00n
MM1662 VSS WL<29> BL<6> VSS N_18 W=470n L=180.00n
MM1661 VSS WL<29> BL<4> VSS N_18 W=470n L=180.00n
MM1660 VSS WL<29> net2260 VSS N_18 W=470n L=180.00n
MM1659 VSS WL<24> net2264 VSS N_18 W=470n L=180.00n
MM1658 VSS WL<29> net2268 VSS N_18 W=470n L=180.00n
MM1657 VSS WL<29> BL<2> VSS N_18 W=470n L=180.00n
MM1656 VSS WL<29> BL<0> VSS N_18 W=470n L=180.00n
MM1655 VSS WL<29> net2280 VSS N_18 W=470n L=180.00n
MM1647 VSS WL<27> BL<14> VSS N_18 W=470n L=180.00n
MM1646 VSS WL<29> BL<12> VSS N_18 W=470n L=180.00n
MM1642 VSS WL<29> net2292 VSS N_18 W=470n L=180.00n
MM1624 VSS WL<28> BL<15> VSS N_18 W=470n L=180.00n
MM1623 VSS WL<28> net2300 VSS N_18 W=470n L=180.00n
MM1622 VSS WL<28> net2304 VSS N_18 W=470n L=180.00n
MM1621 VSS WL<28> BL<13> VSS N_18 W=470n L=180.00n
MM1620 VSS WL<28> BL<11> VSS N_18 W=470n L=180.00n
MM1619 VSS WL<28> net2316 VSS N_18 W=470n L=180.00n
MM1618 VSS WL<28> net2320 VSS N_18 W=470n L=180.00n
MM1617 VSS WL<28> BL<9> VSS N_18 W=470n L=180.00n
MM1616 VSS WL<28> BL<7> VSS N_18 W=470n L=180.00n
MM1615 VSS WL<28> net2332 VSS N_18 W=470n L=180.00n
MM1614 VSS WL<28> net2336 VSS N_18 W=470n L=180.00n
MM1613 VSS WL<28> BL<5> VSS N_18 W=470n L=180.00n
MM1612 VSS WL<28> BL<3> VSS N_18 W=470n L=180.00n
MM1611 VSS WL<28> net2348 VSS N_18 W=470n L=180.00n
MM1610 VSS WL<28> BL<1> VSS N_18 W=470n L=180.00n
MM1609 VSS WL<28> net2356 VSS N_18 W=470n L=180.00n
MM1608 VSS WL<24> net2360 VSS N_18 W=470n L=180.00n
MM1607 VSS WL<24> BL<9> VSS N_18 W=470n L=180.00n
MM1605 VSS WL<24> BL<7> VSS N_18 W=470n L=180.00n
MM1604 VSS WL<24> net2372 VSS N_18 W=470n L=180.00n
MM1603 VSS WL<24> net2376 VSS N_18 W=470n L=180.00n
MM1602 VSS WL<24> BL<5> VSS N_18 W=470n L=180.00n
MM1601 VSS WL<25> BL<10> VSS N_18 W=470n L=180.00n
MM1600 VSS WL<25> BL<8> VSS N_18 W=470n L=180.00n
MM1599 VSS WL<25> net2392 VSS N_18 W=470n L=180.00n
MM1598 VSS WL<25> net2396 VSS N_18 W=470n L=180.00n
MM1597 VSS WL<25> BL<6> VSS N_18 W=470n L=180.00n
MM1596 VSS WL<25> BL<4> VSS N_18 W=470n L=180.00n
MM1595 VSS WL<25> net2408 VSS N_18 W=470n L=180.00n
MM1594 VSS WL<25> net2412 VSS N_18 W=470n L=180.00n
MM1593 VSS WL<25> BL<2> VSS N_18 W=470n L=180.00n
MM1592 VSS WL<25> BL<0> VSS N_18 W=470n L=180.00n
MM1591 VSS WL<27> net2424 VSS N_18 W=470n L=180.00n
MM1590 VSS WL<25> net2428 VSS N_18 W=470n L=180.00n
MM1589 VSS WL<27> BL<10> VSS N_18 W=470n L=180.00n
MM1587 VSS WL<24> BL<3> VSS N_18 W=470n L=180.00n
MM1585 VSS WL<27> net2440 VSS N_18 W=470n L=180.00n
MM1582 VSS WL<24> net2444 VSS N_18 W=470n L=180.00n
MM1573 VSS WL<25> BL<12> VSS N_18 W=470n L=180.00n
MM1569 VSS WL<25> net2452 VSS N_18 W=470n L=180.00n
MM1567 VSS WL<24> BL<1> VSS N_18 W=470n L=180.00n
MM1566 VSS WL<24> net2460 VSS N_18 W=470n L=180.00n
MM2077 VSS WL<16> net2464 VSS N_18 W=470n L=180.00n
MM2076 VSS WL<16> BL<1> VSS N_18 W=470n L=180.00n
MM2074 VSS WL<17> net2472 VSS N_18 W=470n L=180.00n
MM2070 VSS WL<17> BL<12> VSS N_18 W=470n L=180.00n
MM2061 VSS WL<16> net2480 VSS N_18 W=470n L=180.00n
MM2058 VSS WL<19> net2484 VSS N_18 W=470n L=180.00n
MM2056 VSS WL<16> BL<3> VSS N_18 W=470n L=180.00n
MM2054 VSS WL<19> BL<10> VSS N_18 W=470n L=180.00n
MM2053 VSS WL<17> net2496 VSS N_18 W=470n L=180.00n
MM2052 VSS WL<19> net2500 VSS N_18 W=470n L=180.00n
MM2051 VSS WL<17> BL<0> VSS N_18 W=470n L=180.00n
MM2050 VSS WL<17> BL<2> VSS N_18 W=470n L=180.00n
MM2049 VSS WL<17> net2512 VSS N_18 W=470n L=180.00n
MM2048 VSS WL<17> net2516 VSS N_18 W=470n L=180.00n
MM2047 VSS WL<17> BL<4> VSS N_18 W=470n L=180.00n
MM2046 VSS WL<17> BL<6> VSS N_18 W=470n L=180.00n
MM2045 VSS WL<17> net2528 VSS N_18 W=470n L=180.00n
MM2044 VSS WL<17> net2532 VSS N_18 W=470n L=180.00n
MM2043 VSS WL<17> BL<8> VSS N_18 W=470n L=180.00n
MM2042 VSS WL<17> BL<10> VSS N_18 W=470n L=180.00n
MM2041 VSS WL<16> BL<5> VSS N_18 W=470n L=180.00n
MM2040 VSS WL<16> net2548 VSS N_18 W=470n L=180.00n
MM2039 VSS WL<16> net2552 VSS N_18 W=470n L=180.00n
MM2038 VSS WL<16> BL<7> VSS N_18 W=470n L=180.00n
MM2036 VSS WL<16> BL<9> VSS N_18 W=470n L=180.00n
MM2035 VSS WL<16> net2564 VSS N_18 W=470n L=180.00n
MM2034 VSS WL<20> net02592 VSS N_18 W=470n L=180.00n
MM2033 VSS WL<20> BL<1> VSS N_18 W=470n L=180.00n
MM2032 VSS WL<20> net02600 VSS N_18 W=470n L=180.00n
MM2031 VSS WL<20> BL<3> VSS N_18 W=470n L=180.00n
MM2030 VSS WL<20> BL<5> VSS N_18 W=470n L=180.00n
MM2029 VSS WL<20> net02612 VSS N_18 W=470n L=180.00n
MM2028 VSS WL<20> net02616 VSS N_18 W=470n L=180.00n
MM2027 VSS WL<20> BL<7> VSS N_18 W=470n L=180.00n
MM2026 VSS WL<20> BL<9> VSS N_18 W=470n L=180.00n
MM2025 VSS WL<20> net02628 VSS N_18 W=470n L=180.00n
MM2024 VSS WL<20> net02632 VSS N_18 W=470n L=180.00n
MM2023 VSS WL<20> BL<11> VSS N_18 W=470n L=180.00n
MM2022 VSS WL<20> BL<13> VSS N_18 W=470n L=180.00n
MM2021 VSS WL<20> net02644 VSS N_18 W=470n L=180.00n
MM2020 VSS WL<20> net02641 VSS N_18 W=470n L=180.00n
MM2019 VSS WL<20> BL<15> VSS N_18 W=470n L=180.00n
MM2001 VSS WL<21> net2632 VSS N_18 W=470n L=180.00n
MM1997 VSS WL<21> BL<12> VSS N_18 W=470n L=180.00n
MM1996 VSS WL<19> BL<14> VSS N_18 W=470n L=180.00n
MM1988 VSS WL<21> net2644 VSS N_18 W=470n L=180.00n
MM1987 VSS WL<21> BL<0> VSS N_18 W=470n L=180.00n
MM1986 VSS WL<21> BL<2> VSS N_18 W=470n L=180.00n
MM1985 VSS WL<21> net2656 VSS N_18 W=470n L=180.00n
MM1984 VSS WL<16> net2660 VSS N_18 W=470n L=180.00n
MM1983 VSS WL<21> net2664 VSS N_18 W=470n L=180.00n
MM1982 VSS WL<21> BL<4> VSS N_18 W=470n L=180.00n
MM1981 VSS WL<21> BL<6> VSS N_18 W=470n L=180.00n
MM1980 VSS WL<16> BL<11> VSS N_18 W=470n L=180.00n
MM1979 VSS WL<21> net2680 VSS N_18 W=470n L=180.00n
MM1978 VSS WL<16> BL<13> VSS N_18 W=470n L=180.00n
MM1977 VSS WL<21> net2688 VSS N_18 W=470n L=180.00n
MM1976 VSS WL<21> BL<8> VSS N_18 W=470n L=180.00n
MM1975 VSS WL<21> BL<10> VSS N_18 W=470n L=180.00n
MM1973 VSS WL<16> net2700 VSS N_18 W=470n L=180.00n
MM1972 VSS WL<21> net2704 VSS N_18 W=470n L=180.00n
MM1971 VSS WL<21> net2708 VSS N_18 W=470n L=180.00n
MM1967 VSS WL<21> BL<14> VSS N_18 W=470n L=180.00n
MM1964 VSS WL<23> BL<14> VSS N_18 W=470n L=180.00n
MM1960 VSS WL<23> net2720 VSS N_18 W=470n L=180.00n
MM1959 VSS WL<23> net2724 VSS N_18 W=470n L=180.00n
MM1957 VSS WL<23> BL<10> VSS N_18 W=470n L=180.00n
MM1956 VSS WL<23> BL<8> VSS N_18 W=470n L=180.00n
MM1955 VSS WL<23> net2736 VSS N_18 W=470n L=180.00n
MM1954 VSS WL<23> net2740 VSS N_18 W=470n L=180.00n
MM1953 VSS WL<23> BL<6> VSS N_18 W=470n L=180.00n
MM1952 VSS WL<23> BL<4> VSS N_18 W=470n L=180.00n
MM1951 VSS WL<23> net2752 VSS N_18 W=470n L=180.00n
MM1950 VSS WL<23> net2756 VSS N_18 W=470n L=180.00n
MM1949 VSS WL<23> BL<2> VSS N_18 W=470n L=180.00n
MM1948 VSS WL<23> BL<0> VSS N_18 W=470n L=180.00n
MM1947 VSS WL<23> net2768 VSS N_18 W=470n L=180.00n
MM1939 VSS WL<23> BL<12> VSS N_18 W=470n L=180.00n
MM1935 VSS WL<23> net2776 VSS N_18 W=470n L=180.00n
MM1924 VSS WL<17> net2780 VSS N_18 W=470n L=180.00n
MM1916 VSS WL<22> BL<15> VSS N_18 W=470n L=180.00n
MM1915 VSS WL<22> net2788 VSS N_18 W=470n L=180.00n
MM1914 VSS WL<22> net2792 VSS N_18 W=470n L=180.00n
MM1913 VSS WL<22> BL<13> VSS N_18 W=470n L=180.00n
MM1912 VSS WL<22> BL<11> VSS N_18 W=470n L=180.00n
MM1911 VSS WL<22> net2804 VSS N_18 W=470n L=180.00n
MM1910 VSS WL<22> net2808 VSS N_18 W=470n L=180.00n
MM1909 VSS WL<22> BL<9> VSS N_18 W=470n L=180.00n
MM1908 VSS WL<22> BL<7> VSS N_18 W=470n L=180.00n
MM1907 VSS WL<22> net2820 VSS N_18 W=470n L=180.00n
MM1906 VSS WL<22> net2824 VSS N_18 W=470n L=180.00n
MM1905 VSS WL<22> BL<5> VSS N_18 W=470n L=180.00n
MM1904 VSS WL<22> BL<3> VSS N_18 W=470n L=180.00n
MM1903 VSS WL<22> net2836 VSS N_18 W=470n L=180.00n
MM1902 VSS WL<22> BL<1> VSS N_18 W=470n L=180.00n
MM1901 VSS WL<22> net2844 VSS N_18 W=470n L=180.00n
MM1900 VSS WL<16> net2848 VSS N_18 W=470n L=180.00n
MM1899 VSS WL<16> BL<15> VSS N_18 W=470n L=180.00n
MM1890 VSS WL<17> net2856 VSS N_18 W=470n L=180.00n
MM1878 VSS WL<18> net2860 VSS N_18 W=470n L=180.00n
MM1877 VSS WL<18> BL<1> VSS N_18 W=470n L=180.00n
MM1876 VSS WL<18> net2868 VSS N_18 W=470n L=180.00n
MM1875 VSS WL<18> BL<3> VSS N_18 W=470n L=180.00n
MM1874 VSS WL<18> BL<5> VSS N_18 W=470n L=180.00n
MM1873 VSS WL<18> net2880 VSS N_18 W=470n L=180.00n
MM1872 VSS WL<18> net2884 VSS N_18 W=470n L=180.00n
MM1871 VSS WL<18> BL<7> VSS N_18 W=470n L=180.00n
MM1870 VSS WL<18> BL<9> VSS N_18 W=470n L=180.00n
MM1869 VSS WL<18> net2896 VSS N_18 W=470n L=180.00n
MM1868 VSS WL<18> net2900 VSS N_18 W=470n L=180.00n
MM1867 VSS WL<18> BL<11> VSS N_18 W=470n L=180.00n
MM1866 VSS WL<18> BL<13> VSS N_18 W=470n L=180.00n
MM1865 VSS WL<18> net2912 VSS N_18 W=470n L=180.00n
MM1864 VSS WL<18> net2916 VSS N_18 W=470n L=180.00n
MM1863 VSS WL<18> BL<15> VSS N_18 W=470n L=180.00n
MM1845 VSS WL<19> net2924 VSS N_18 W=470n L=180.00n
MM1841 VSS WL<19> BL<12> VSS N_18 W=470n L=180.00n
MM1833 VSS WL<19> net2932 VSS N_18 W=470n L=180.00n
MM1832 VSS WL<19> BL<0> VSS N_18 W=470n L=180.00n
MM1831 VSS WL<19> BL<2> VSS N_18 W=470n L=180.00n
MM1830 VSS WL<19> net2944 VSS N_18 W=470n L=180.00n
MM1829 VSS WL<19> net2948 VSS N_18 W=470n L=180.00n
MM1828 VSS WL<19> BL<4> VSS N_18 W=470n L=180.00n
MM1827 VSS WL<19> BL<6> VSS N_18 W=470n L=180.00n
MM1826 VSS WL<19> net2960 VSS N_18 W=470n L=180.00n
MM1825 VSS WL<19> net2964 VSS N_18 W=470n L=180.00n
MM1824 VSS WL<19> BL<8> VSS N_18 W=470n L=180.00n
MM1823 VSS WL<17> BL<14> VSS N_18 W=470n L=180.00n
MM1820 VSS WL<25> BL<14> VSS N_18 W=470n L=180.00n
MM1819 VSS WL<27> BL<8> VSS N_18 W=470n L=180.00n
MM1818 VSS WL<27> net2984 VSS N_18 W=470n L=180.00n
MM1817 VSS WL<27> net2988 VSS N_18 W=470n L=180.00n
MM1816 VSS WL<27> BL<6> VSS N_18 W=470n L=180.00n
MM1815 VSS WL<27> BL<4> VSS N_18 W=470n L=180.00n
MM1814 VSS WL<27> net3000 VSS N_18 W=470n L=180.00n
MM1813 VSS WL<27> net3004 VSS N_18 W=470n L=180.00n
MM1812 VSS WL<27> BL<2> VSS N_18 W=470n L=180.00n
MM1811 VSS WL<27> BL<0> VSS N_18 W=470n L=180.00n
MM1810 VSS WL<27> net3016 VSS N_18 W=470n L=180.00n
MM1802 VSS WL<27> BL<12> VSS N_18 W=470n L=180.00n
MM1069 VSS WL<0> BL<15> VSS N_18 W=470n L=180.00n
MM1068 VSS WL<0> net3028 VSS N_18 W=470n L=180.00n
MM1182 VSS WL<6> net3032 VSS N_18 W=470n L=180.00n
MM1183 VSS WL<6> BL<1> VSS N_18 W=470n L=180.00n
MM1184 VSS WL<6> net3040 VSS N_18 W=470n L=180.00n
MM1185 VSS WL<6> BL<3> VSS N_18 W=470n L=180.00n
MM1186 VSS WL<6> BL<5> VSS N_18 W=470n L=180.00n
MM1187 VSS WL<6> net3052 VSS N_18 W=470n L=180.00n
MM1188 VSS WL<6> net3056 VSS N_18 W=470n L=180.00n
MM1189 VSS WL<6> BL<7> VSS N_18 W=470n L=180.00n
MM1190 VSS WL<6> BL<9> VSS N_18 W=470n L=180.00n
MM1191 VSS WL<6> net3068 VSS N_18 W=470n L=180.00n
MM1192 VSS WL<6> net3072 VSS N_18 W=470n L=180.00n
MM1193 VSS WL<6> BL<11> VSS N_18 W=470n L=180.00n
MM1194 VSS WL<6> BL<13> VSS N_18 W=470n L=180.00n
MM1195 VSS WL<6> net3084 VSS N_18 W=470n L=180.00n
MM1196 VSS WL<6> net3088 VSS N_18 W=470n L=180.00n
MM1197 VSS WL<6> BL<15> VSS N_18 W=470n L=180.00n
MM1105 VSS WL<1> net3096 VSS N_18 W=470n L=180.00n
MM1215 VSS WL<7> net3100 VSS N_18 W=470n L=180.00n
MM1219 VSS WL<7> BL<12> VSS N_18 W=470n L=180.00n
MM1227 VSS WL<7> net3108 VSS N_18 W=470n L=180.00n
MM1228 VSS WL<7> BL<0> VSS N_18 W=470n L=180.00n
MM1229 VSS WL<7> BL<2> VSS N_18 W=470n L=180.00n
MM1230 VSS WL<7> net3120 VSS N_18 W=470n L=180.00n
MM1231 VSS WL<7> net3124 VSS N_18 W=470n L=180.00n
MM1232 VSS WL<7> BL<4> VSS N_18 W=470n L=180.00n
MM1233 VSS WL<7> BL<6> VSS N_18 W=470n L=180.00n
MM1234 VSS WL<7> net3136 VSS N_18 W=470n L=180.00n
MM1235 VSS WL<7> net3140 VSS N_18 W=470n L=180.00n
MM1236 VSS WL<7> BL<8> VSS N_18 W=470n L=180.00n
MM1237 VSS WL<7> BL<10> VSS N_18 W=470n L=180.00n
MM1239 VSS WL<7> net3152 VSS N_18 W=470n L=180.00n
MM1240 VSS WL<7> net3156 VSS N_18 W=470n L=180.00n
MM1244 VSS WL<7> BL<14> VSS N_18 W=470n L=180.00n
MM1247 VSS WL<5> BL<14> VSS N_18 W=470n L=180.00n
MM1251 VSS WL<5> net3168 VSS N_18 W=470n L=180.00n
MM1252 VSS WL<5> net3172 VSS N_18 W=470n L=180.00n
MM1067 VSS WL<0> net3176 VSS N_18 W=470n L=180.00n
MM1254 VSS WL<5> BL<10> VSS N_18 W=470n L=180.00n
MM1255 VSS WL<5> BL<8> VSS N_18 W=470n L=180.00n
MM1256 VSS WL<5> net3188 VSS N_18 W=470n L=180.00n
MM1066 VSS WL<0> BL<13> VSS N_18 W=470n L=180.00n
MM1257 VSS WL<5> net3196 VSS N_18 W=470n L=180.00n
MM1065 VSS WL<0> BL<11> VSS N_18 W=470n L=180.00n
MM1258 VSS WL<5> BL<6> VSS N_18 W=470n L=180.00n
MM1259 VSS WL<5> BL<4> VSS N_18 W=470n L=180.00n
MM1260 VSS WL<5> net3212 VSS N_18 W=470n L=180.00n
MM1064 VSS WL<0> net3216 VSS N_18 W=470n L=180.00n
MM1261 VSS WL<5> net3220 VSS N_18 W=470n L=180.00n
MM1262 VSS WL<5> BL<2> VSS N_18 W=470n L=180.00n
MM1263 VSS WL<5> BL<0> VSS N_18 W=470n L=180.00n
MM1264 VSS WL<5> net3232 VSS N_18 W=470n L=180.00n
MM1119 VSS WL<3> BL<14> VSS N_18 W=470n L=180.00n
MM1272 VSS WL<5> BL<12> VSS N_18 W=470n L=180.00n
MM1276 VSS WL<5> net3244 VSS N_18 W=470n L=180.00n
MM1294 VSS WL<4> BL<15> VSS N_18 W=470n L=180.00n
MM1295 VSS WL<4> net3252 VSS N_18 W=470n L=180.00n
MM1296 VSS WL<4> net3256 VSS N_18 W=470n L=180.00n
MM1297 VSS WL<4> BL<13> VSS N_18 W=470n L=180.00n
MM1298 VSS WL<4> BL<11> VSS N_18 W=470n L=180.00n
MM1299 VSS WL<4> net3268 VSS N_18 W=470n L=180.00n
MM1300 VSS WL<4> net3272 VSS N_18 W=470n L=180.00n
MM1301 VSS WL<4> BL<9> VSS N_18 W=470n L=180.00n
MM1302 VSS WL<4> BL<7> VSS N_18 W=470n L=180.00n
MM1303 VSS WL<4> net3284 VSS N_18 W=470n L=180.00n
MM1304 VSS WL<4> net3288 VSS N_18 W=470n L=180.00n
MM1305 VSS WL<4> BL<5> VSS N_18 W=470n L=180.00n
MM1306 VSS WL<4> BL<3> VSS N_18 W=470n L=180.00n
MM1307 VSS WL<4> net3300 VSS N_18 W=470n L=180.00n
MM1308 VSS WL<4> BL<1> VSS N_18 W=470n L=180.00n
MM1309 VSS WL<4> net3308 VSS N_18 W=470n L=180.00n
MM1311 VSS WL<9> BL<14> VSS N_18 W=470n L=180.00n
MM1312 VSS WL<11> BL<8> VSS N_18 W=470n L=180.00n
MM1313 VSS WL<11> net3320 VSS N_18 W=470n L=180.00n
MM1314 VSS WL<11> net3324 VSS N_18 W=470n L=180.00n
MM1315 VSS WL<11> BL<6> VSS N_18 W=470n L=180.00n
MM1316 VSS WL<11> BL<4> VSS N_18 W=470n L=180.00n
MM1063 VSS WL<0> net3336 VSS N_18 W=470n L=180.00n
MM1062 VSS WL<0> BL<9> VSS N_18 W=470n L=180.00n
MM1061 VSS WL<0> BL<7> VSS N_18 W=470n L=180.00n
MM1060 VSS WL<0> net3348 VSS N_18 W=470n L=180.00n
MM1317 VSS WL<11> net3352 VSS N_18 W=470n L=180.00n
MM1318 VSS WL<11> net3356 VSS N_18 W=470n L=180.00n
MM1059 VSS WL<0> net3360 VSS N_18 W=470n L=180.00n
MM1058 VSS WL<0> BL<5> VSS N_18 W=470n L=180.00n
MM1319 VSS WL<11> BL<2> VSS N_18 W=470n L=180.00n
MM1320 VSS WL<11> BL<0> VSS N_18 W=470n L=180.00n
MM1107 VSS WL<1> BL<10> VSS N_18 W=470n L=180.00n
MM1108 VSS WL<1> BL<8> VSS N_18 W=470n L=180.00n
MM1109 VSS WL<1> net3384 VSS N_18 W=470n L=180.00n
MM1110 VSS WL<1> net3388 VSS N_18 W=470n L=180.00n
MM1111 VSS WL<1> BL<6> VSS N_18 W=470n L=180.00n
MM1112 VSS WL<1> BL<4> VSS N_18 W=470n L=180.00n
MM1113 VSS WL<1> net3400 VSS N_18 W=470n L=180.00n
MM1114 VSS WL<1> net3404 VSS N_18 W=470n L=180.00n
MM1115 VSS WL<1> BL<2> VSS N_18 W=470n L=180.00n
MM1116 VSS WL<1> BL<0> VSS N_18 W=470n L=180.00n
MM1123 VSS WL<3> net3416 VSS N_18 W=470n L=180.00n
MM1117 VSS WL<1> net3420 VSS N_18 W=470n L=180.00n
MM1126 VSS WL<3> BL<10> VSS N_18 W=470n L=180.00n
MM1057 VSS WL<0> BL<3> VSS N_18 W=470n L=180.00n
MM1321 VSS WL<11> net3432 VSS N_18 W=470n L=180.00n
MM1124 VSS WL<3> net3436 VSS N_18 W=470n L=180.00n
MM2136 VSS WL<52> BL<15> VSS N_18 W=470n L=180.00n
MM2135 VSS WL<52> net3444 VSS N_18 W=470n L=180.00n
MM2134 VSS WL<52> net3448 VSS N_18 W=470n L=180.00n
MM2133 VSS WL<52> BL<13> VSS N_18 W=470n L=180.00n
MM2132 VSS WL<52> BL<11> VSS N_18 W=470n L=180.00n
MM2131 VSS WL<52> net3460 VSS N_18 W=470n L=180.00n
MM2130 VSS WL<52> net3464 VSS N_18 W=470n L=180.00n
MM2129 VSS WL<52> BL<9> VSS N_18 W=470n L=180.00n
MM2128 VSS WL<52> BL<7> VSS N_18 W=470n L=180.00n
MM2127 VSS WL<52> net3476 VSS N_18 W=470n L=180.00n
MM2126 VSS WL<52> net3480 VSS N_18 W=470n L=180.00n
MM2125 VSS WL<52> BL<5> VSS N_18 W=470n L=180.00n
MM2124 VSS WL<52> BL<3> VSS N_18 W=470n L=180.00n
MM2123 VSS WL<52> net3492 VSS N_18 W=470n L=180.00n
MM2122 VSS WL<52> BL<1> VSS N_18 W=470n L=180.00n
MM2121 VSS WL<52> net3500 VSS N_18 W=470n L=180.00n
MM2120 VSS WL<48> net3504 VSS N_18 W=470n L=180.00n
MM2119 VSS WL<48> BL<9> VSS N_18 W=470n L=180.00n
MM2117 VSS WL<48> BL<7> VSS N_18 W=470n L=180.00n
MM2116 VSS WL<48> net3516 VSS N_18 W=470n L=180.00n
MM2115 VSS WL<48> net3520 VSS N_18 W=470n L=180.00n
MM2114 VSS WL<48> BL<5> VSS N_18 W=470n L=180.00n
MM2113 VSS WL<49> BL<10> VSS N_18 W=470n L=180.00n
MM2112 VSS WL<49> BL<8> VSS N_18 W=470n L=180.00n
MM2111 VSS WL<49> net3536 VSS N_18 W=470n L=180.00n
MM2110 VSS WL<49> net3540 VSS N_18 W=470n L=180.00n
MM2109 VSS WL<49> BL<6> VSS N_18 W=470n L=180.00n
MM2108 VSS WL<49> BL<4> VSS N_18 W=470n L=180.00n
MM2107 VSS WL<49> net3552 VSS N_18 W=470n L=180.00n
MM2106 VSS WL<49> net3556 VSS N_18 W=470n L=180.00n
MM2105 VSS WL<49> BL<2> VSS N_18 W=470n L=180.00n
MM2104 VSS WL<49> BL<0> VSS N_18 W=470n L=180.00n
MM2103 VSS WL<51> net3568 VSS N_18 W=470n L=180.00n
MM2102 VSS WL<49> net3572 VSS N_18 W=470n L=180.00n
MM2101 VSS WL<51> BL<10> VSS N_18 W=470n L=180.00n
MM2099 VSS WL<48> BL<3> VSS N_18 W=470n L=180.00n
MM2097 VSS WL<51> net3584 VSS N_18 W=470n L=180.00n
MM2094 VSS WL<48> net3588 VSS N_18 W=470n L=180.00n
MM2085 VSS WL<49> BL<12> VSS N_18 W=470n L=180.00n
MM2081 VSS WL<49> net3596 VSS N_18 W=470n L=180.00n
MM2079 VSS WL<48> BL<1> VSS N_18 W=470n L=180.00n
MM2078 VSS WL<48> net3604 VSS N_18 W=470n L=180.00n
MM2495 VSS WL<61> net3608 VSS N_18 W=470n L=180.00n
MM2494 VSS WL<61> BL<4> VSS N_18 W=470n L=180.00n
MM2493 VSS WL<61> BL<6> VSS N_18 W=470n L=180.00n
MM2492 VSS WL<56> BL<11> VSS N_18 W=470n L=180.00n
MM2491 VSS WL<61> net3624 VSS N_18 W=470n L=180.00n
MM2490 VSS WL<56> BL<13> VSS N_18 W=470n L=180.00n
MM2489 VSS WL<61> net3632 VSS N_18 W=470n L=180.00n
MM2488 VSS WL<61> BL<8> VSS N_18 W=470n L=180.00n
MM2487 VSS WL<61> BL<10> VSS N_18 W=470n L=180.00n
MM2485 VSS WL<56> net3644 VSS N_18 W=470n L=180.00n
MM2484 VSS WL<61> net3648 VSS N_18 W=470n L=180.00n
MM2483 VSS WL<61> net3652 VSS N_18 W=470n L=180.00n
MM2479 VSS WL<61> BL<14> VSS N_18 W=470n L=180.00n
MM2476 VSS WL<63> BL<14> VSS N_18 W=470n L=180.00n
MM2472 VSS WL<63> net3664 VSS N_18 W=470n L=180.00n
MM2471 VSS WL<63> net3668 VSS N_18 W=470n L=180.00n
MM2469 VSS WL<63> BL<10> VSS N_18 W=470n L=180.00n
MM2468 VSS WL<63> BL<8> VSS N_18 W=470n L=180.00n
MM2467 VSS WL<63> net3680 VSS N_18 W=470n L=180.00n
MM2466 VSS WL<63> net3684 VSS N_18 W=470n L=180.00n
MM2465 VSS WL<63> BL<6> VSS N_18 W=470n L=180.00n
MM2464 VSS WL<63> BL<4> VSS N_18 W=470n L=180.00n
MM2463 VSS WL<63> net3696 VSS N_18 W=470n L=180.00n
MM2462 VSS WL<63> net3700 VSS N_18 W=470n L=180.00n
MM2461 VSS WL<63> BL<2> VSS N_18 W=470n L=180.00n
MM2460 VSS WL<63> BL<0> VSS N_18 W=470n L=180.00n
MM2459 VSS WL<63> net3712 VSS N_18 W=470n L=180.00n
MM2451 VSS WL<63> BL<12> VSS N_18 W=470n L=180.00n
MM2447 VSS WL<63> net3720 VSS N_18 W=470n L=180.00n
MM2436 VSS WL<57> net3724 VSS N_18 W=470n L=180.00n
MM2428 VSS WL<62> BL<15> VSS N_18 W=470n L=180.00n
MM2427 VSS WL<62> net3732 VSS N_18 W=470n L=180.00n
MM2426 VSS WL<62> net3736 VSS N_18 W=470n L=180.00n
MM2425 VSS WL<62> BL<13> VSS N_18 W=470n L=180.00n
MM2424 VSS WL<62> BL<11> VSS N_18 W=470n L=180.00n
MM2423 VSS WL<62> net3748 VSS N_18 W=470n L=180.00n
MM2422 VSS WL<62> net3752 VSS N_18 W=470n L=180.00n
MM2421 VSS WL<62> BL<9> VSS N_18 W=470n L=180.00n
MM2420 VSS WL<62> BL<7> VSS N_18 W=470n L=180.00n
MM2419 VSS WL<62> net3764 VSS N_18 W=470n L=180.00n
MM2418 VSS WL<62> net3768 VSS N_18 W=470n L=180.00n
MM2417 VSS WL<62> BL<5> VSS N_18 W=470n L=180.00n
MM2416 VSS WL<62> BL<3> VSS N_18 W=470n L=180.00n
MM2415 VSS WL<62> net3780 VSS N_18 W=470n L=180.00n
MM2414 VSS WL<62> BL<1> VSS N_18 W=470n L=180.00n
MM2413 VSS WL<62> net3788 VSS N_18 W=470n L=180.00n
MM2412 VSS WL<56> net3792 VSS N_18 W=470n L=180.00n
MM2411 VSS WL<56> BL<15> VSS N_18 W=470n L=180.00n
MM2402 VSS WL<57> net3800 VSS N_18 W=470n L=180.00n
MM2390 VSS WL<58> net3804 VSS N_18 W=470n L=180.00n
MM2389 VSS WL<58> BL<1> VSS N_18 W=470n L=180.00n
MM2388 VSS WL<58> net3812 VSS N_18 W=470n L=180.00n
MM2387 VSS WL<58> BL<3> VSS N_18 W=470n L=180.00n
MM2386 VSS WL<58> BL<5> VSS N_18 W=470n L=180.00n
MM2385 VSS WL<58> net3824 VSS N_18 W=470n L=180.00n
MM2384 VSS WL<58> net3828 VSS N_18 W=470n L=180.00n
MM2383 VSS WL<58> BL<7> VSS N_18 W=470n L=180.00n
MM2382 VSS WL<58> BL<9> VSS N_18 W=470n L=180.00n
MM2381 VSS WL<58> net3840 VSS N_18 W=470n L=180.00n
MM2380 VSS WL<58> net3844 VSS N_18 W=470n L=180.00n
MM2379 VSS WL<58> BL<11> VSS N_18 W=470n L=180.00n
MM2378 VSS WL<58> BL<13> VSS N_18 W=470n L=180.00n
MM2377 VSS WL<58> net3856 VSS N_18 W=470n L=180.00n
MM2376 VSS WL<58> net3860 VSS N_18 W=470n L=180.00n
MM2375 VSS WL<58> BL<15> VSS N_18 W=470n L=180.00n
MM2357 VSS WL<59> net3868 VSS N_18 W=470n L=180.00n
MM2353 VSS WL<59> BL<12> VSS N_18 W=470n L=180.00n
MM2345 VSS WL<59> net3876 VSS N_18 W=470n L=180.00n
MM2344 VSS WL<59> BL<0> VSS N_18 W=470n L=180.00n
MM2343 VSS WL<59> BL<2> VSS N_18 W=470n L=180.00n
MM2342 VSS WL<59> net3888 VSS N_18 W=470n L=180.00n
MM2341 VSS WL<59> net3892 VSS N_18 W=470n L=180.00n
MM2340 VSS WL<59> BL<4> VSS N_18 W=470n L=180.00n
MM2339 VSS WL<59> BL<6> VSS N_18 W=470n L=180.00n
MM2338 VSS WL<59> net3904 VSS N_18 W=470n L=180.00n