* SPICE NETLIST
***************************************

.SUBCKT L POS NEG
.ENDS
***************************************
.SUBCKT final_mos_unit
** N=3 EP=0 IP=0 FDC=0
.ENDS
***************************************
.SUBCKT nor_final
** N=6 EP=0 IP=24 FDC=0
.ENDS
***************************************
.SUBCKT ICV_1
** N=9 EP=0 IP=12 FDC=0
.ENDS
***************************************
.SUBCKT ICV_2
** N=15 EP=0 IP=18 FDC=0
.ENDS
***************************************
.SUBCKT ICV_3
** N=27 EP=0 IP=30 FDC=0
.ENDS
***************************************
.SUBCKT ICV_4
** N=44 EP=0 IP=54 FDC=0
.ENDS
***************************************
.SUBCKT inv_1u5_0u5 1 2 3 4
** N=4 EP=4 IP=0 FDC=2
M0 4 1 2 2 N_18 L=1.8e-07 W=5e-07 AD=2.55e-13 AS=2.55e-13 PD=1.52e-06 PS=1.52e-06 $X=-65 $Y=-2195 $D=0
M1 4 1 3 3 P_18 L=1.8e-07 W=1.5e-06 AD=7.65e-13 AS=7.65e-13 PD=2.52e-06 PS=2.52e-06 $X=-65 $Y=-490 $D=1
.ENDS
***************************************
.SUBCKT ICV_5
** N=6 EP=0 IP=12 FDC=0
.ENDS
***************************************
.SUBCKT nand4_final
** N=10 EP=0 IP=24 FDC=0
.ENDS
***************************************
.SUBCKT three_to_eight_final 1 2 3 4 5 6 7 8 9 10 11 12 13 14
** N=41 EP=14 IP=92 FDC=70
M0 18 5 6 6 N_18 L=1.8e-07 W=5e-07 AD=2.45e-13 AS=2.45e-13 PD=1.48e-06 PS=1.48e-06 $X=9215 $Y=-25740 $D=0
M1 26 4 18 6 N_18 L=1.8e-07 W=5e-07 AD=2.45e-13 AS=2.45e-13 PD=1.48e-06 PS=1.48e-06 $X=9215 $Y=-24280 $D=0
M2 34 3 26 6 N_18 L=1.8e-07 W=5e-07 AD=2.45e-13 AS=2.45e-13 PD=1.48e-06 PS=1.48e-06 $X=9215 $Y=-22820 $D=0
M3 7 2 34 6 N_18 L=1.8e-07 W=5e-07 AD=2.45e-13 AS=2.45e-13 PD=1.48e-06 PS=1.48e-06 $X=9215 $Y=-21360 $D=0
M4 19 5 6 6 N_18 L=1.8e-07 W=5e-07 AD=2.45e-13 AS=2.45e-13 PD=1.48e-06 PS=1.48e-06 $X=9215 $Y=-19720 $D=0
M5 27 16 19 6 N_18 L=1.8e-07 W=5e-07 AD=2.45e-13 AS=2.45e-13 PD=1.48e-06 PS=1.48e-06 $X=9215 $Y=-18260 $D=0
M6 35 3 27 6 N_18 L=1.8e-07 W=5e-07 AD=2.45e-13 AS=2.45e-13 PD=1.48e-06 PS=1.48e-06 $X=9215 $Y=-16800 $D=0
M7 8 2 35 6 N_18 L=1.8e-07 W=5e-07 AD=2.45e-13 AS=2.45e-13 PD=1.48e-06 PS=1.48e-06 $X=9215 $Y=-15340 $D=0
M8 20 5 6 6 N_18 L=1.8e-07 W=5e-07 AD=2.45e-13 AS=2.45e-13 PD=1.48e-06 PS=1.48e-06 $X=9215 $Y=-13700 $D=0
M9 28 4 20 6 N_18 L=1.8e-07 W=5e-07 AD=2.45e-13 AS=2.45e-13 PD=1.48e-06 PS=1.48e-06 $X=9215 $Y=-12240 $D=0
M10 36 15 28 6 N_18 L=1.8e-07 W=5e-07 AD=2.45e-13 AS=2.45e-13 PD=1.48e-06 PS=1.48e-06 $X=9215 $Y=-10780 $D=0
M11 9 2 36 6 N_18 L=1.8e-07 W=5e-07 AD=2.45e-13 AS=2.45e-13 PD=1.48e-06 PS=1.48e-06 $X=9215 $Y=-9320 $D=0
M12 21 5 6 6 N_18 L=1.8e-07 W=5e-07 AD=2.45e-13 AS=2.45e-13 PD=1.48e-06 PS=1.48e-06 $X=9215 $Y=-7680 $D=0
M13 29 16 21 6 N_18 L=1.8e-07 W=5e-07 AD=2.45e-13 AS=2.45e-13 PD=1.48e-06 PS=1.48e-06 $X=9215 $Y=-6220 $D=0
M14 37 15 29 6 N_18 L=1.8e-07 W=5e-07 AD=2.45e-13 AS=2.45e-13 PD=1.48e-06 PS=1.48e-06 $X=9215 $Y=-4760 $D=0
M15 10 2 37 6 N_18 L=1.8e-07 W=5e-07 AD=2.45e-13 AS=2.45e-13 PD=1.48e-06 PS=1.48e-06 $X=9215 $Y=-3300 $D=0
M16 22 5 6 6 N_18 L=1.8e-07 W=5e-07 AD=2.45e-13 AS=2.45e-13 PD=1.48e-06 PS=1.48e-06 $X=9215 $Y=-1660 $D=0
M17 30 4 22 6 N_18 L=1.8e-07 W=5e-07 AD=2.45e-13 AS=2.45e-13 PD=1.48e-06 PS=1.48e-06 $X=9215 $Y=-200 $D=0
M18 38 3 30 6 N_18 L=1.8e-07 W=5e-07 AD=2.45e-13 AS=2.45e-13 PD=1.48e-06 PS=1.48e-06 $X=9215 $Y=1260 $D=0
M19 11 17 38 6 N_18 L=1.8e-07 W=5e-07 AD=2.45e-13 AS=2.45e-13 PD=1.48e-06 PS=1.48e-06 $X=9215 $Y=2720 $D=0
M20 23 5 6 6 N_18 L=1.8e-07 W=5e-07 AD=2.45e-13 AS=2.45e-13 PD=1.48e-06 PS=1.48e-06 $X=9215 $Y=4360 $D=0
M21 31 16 23 6 N_18 L=1.8e-07 W=5e-07 AD=2.45e-13 AS=2.45e-13 PD=1.48e-06 PS=1.48e-06 $X=9215 $Y=5820 $D=0
M22 39 3 31 6 N_18 L=1.8e-07 W=5e-07 AD=2.45e-13 AS=2.45e-13 PD=1.48e-06 PS=1.48e-06 $X=9215 $Y=7280 $D=0
M23 12 17 39 6 N_18 L=1.8e-07 W=5e-07 AD=2.45e-13 AS=2.45e-13 PD=1.48e-06 PS=1.48e-06 $X=9215 $Y=8740 $D=0
M24 24 5 6 6 N_18 L=1.8e-07 W=5e-07 AD=2.45e-13 AS=2.45e-13 PD=1.48e-06 PS=1.48e-06 $X=9215 $Y=10380 $D=0
M25 32 4 24 6 N_18 L=1.8e-07 W=5e-07 AD=2.45e-13 AS=2.45e-13 PD=1.48e-06 PS=1.48e-06 $X=9215 $Y=11840 $D=0
M26 40 15 32 6 N_18 L=1.8e-07 W=5e-07 AD=2.45e-13 AS=2.45e-13 PD=1.48e-06 PS=1.48e-06 $X=9215 $Y=13300 $D=0
M27 13 17 40 6 N_18 L=1.8e-07 W=5e-07 AD=2.45e-13 AS=2.45e-13 PD=1.48e-06 PS=1.48e-06 $X=9215 $Y=14760 $D=0
M28 25 5 6 6 N_18 L=1.8e-07 W=5e-07 AD=2.45e-13 AS=2.45e-13 PD=1.48e-06 PS=1.48e-06 $X=9215 $Y=16400 $D=0
M29 33 16 25 6 N_18 L=1.8e-07 W=5e-07 AD=2.45e-13 AS=2.45e-13 PD=1.48e-06 PS=1.48e-06 $X=9215 $Y=17860 $D=0
M30 41 15 33 6 N_18 L=1.8e-07 W=5e-07 AD=2.45e-13 AS=2.45e-13 PD=1.48e-06 PS=1.48e-06 $X=9215 $Y=19320 $D=0
M31 14 17 41 6 N_18 L=1.8e-07 W=5e-07 AD=2.45e-13 AS=2.45e-13 PD=1.48e-06 PS=1.48e-06 $X=9215 $Y=20780 $D=0
M32 7 5 1 1 P_18 L=1.8e-07 W=1.5e-06 AD=7.35e-13 AS=7.35e-13 PD=2.48e-06 PS=2.48e-06 $X=10645 $Y=-25740 $D=1
M33 7 4 1 1 P_18 L=1.8e-07 W=1.5e-06 AD=7.35e-13 AS=7.35e-13 PD=2.48e-06 PS=2.48e-06 $X=10645 $Y=-24280 $D=1
M34 7 3 1 1 P_18 L=1.8e-07 W=1.5e-06 AD=7.35e-13 AS=7.35e-13 PD=2.48e-06 PS=2.48e-06 $X=10645 $Y=-22820 $D=1
M35 7 2 1 1 P_18 L=1.8e-07 W=1.5e-06 AD=7.35e-13 AS=7.35e-13 PD=2.48e-06 PS=2.48e-06 $X=10645 $Y=-21360 $D=1
M36 8 5 1 1 P_18 L=1.8e-07 W=1.5e-06 AD=7.35e-13 AS=7.35e-13 PD=2.48e-06 PS=2.48e-06 $X=10645 $Y=-19720 $D=1
M37 8 16 1 1 P_18 L=1.8e-07 W=1.5e-06 AD=7.35e-13 AS=7.35e-13 PD=2.48e-06 PS=2.48e-06 $X=10645 $Y=-18260 $D=1
M38 8 3 1 1 P_18 L=1.8e-07 W=1.5e-06 AD=7.35e-13 AS=7.35e-13 PD=2.48e-06 PS=2.48e-06 $X=10645 $Y=-16800 $D=1
M39 8 2 1 1 P_18 L=1.8e-07 W=1.5e-06 AD=7.35e-13 AS=7.35e-13 PD=2.48e-06 PS=2.48e-06 $X=10645 $Y=-15340 $D=1
M40 9 5 1 1 P_18 L=1.8e-07 W=1.5e-06 AD=7.35e-13 AS=7.35e-13 PD=2.48e-06 PS=2.48e-06 $X=10645 $Y=-13700 $D=1
M41 9 4 1 1 P_18 L=1.8e-07 W=1.5e-06 AD=7.35e-13 AS=7.35e-13 PD=2.48e-06 PS=2.48e-06 $X=10645 $Y=-12240 $D=1
M42 9 15 1 1 P_18 L=1.8e-07 W=1.5e-06 AD=7.35e-13 AS=7.35e-13 PD=2.48e-06 PS=2.48e-06 $X=10645 $Y=-10780 $D=1
M43 9 2 1 1 P_18 L=1.8e-07 W=1.5e-06 AD=7.35e-13 AS=7.35e-13 PD=2.48e-06 PS=2.48e-06 $X=10645 $Y=-9320 $D=1
M44 10 5 1 1 P_18 L=1.8e-07 W=1.5e-06 AD=7.35e-13 AS=7.35e-13 PD=2.48e-06 PS=2.48e-06 $X=10645 $Y=-7680 $D=1
M45 10 16 1 1 P_18 L=1.8e-07 W=1.5e-06 AD=7.35e-13 AS=7.35e-13 PD=2.48e-06 PS=2.48e-06 $X=10645 $Y=-6220 $D=1
M46 10 15 1 1 P_18 L=1.8e-07 W=1.5e-06 AD=7.35e-13 AS=7.35e-13 PD=2.48e-06 PS=2.48e-06 $X=10645 $Y=-4760 $D=1
M47 10 2 1 1 P_18 L=1.8e-07 W=1.5e-06 AD=7.35e-13 AS=7.35e-13 PD=2.48e-06 PS=2.48e-06 $X=10645 $Y=-3300 $D=1
M48 11 5 1 1 P_18 L=1.8e-07 W=1.5e-06 AD=7.35e-13 AS=7.35e-13 PD=2.48e-06 PS=2.48e-06 $X=10645 $Y=-1660 $D=1
M49 11 4 1 1 P_18 L=1.8e-07 W=1.5e-06 AD=7.35e-13 AS=7.35e-13 PD=2.48e-06 PS=2.48e-06 $X=10645 $Y=-200 $D=1
M50 11 3 1 1 P_18 L=1.8e-07 W=1.5e-06 AD=7.35e-13 AS=7.35e-13 PD=2.48e-06 PS=2.48e-06 $X=10645 $Y=1260 $D=1
M51 11 17 1 1 P_18 L=1.8e-07 W=1.5e-06 AD=7.35e-13 AS=7.35e-13 PD=2.48e-06 PS=2.48e-06 $X=10645 $Y=2720 $D=1
M52 12 5 1 1 P_18 L=1.8e-07 W=1.5e-06 AD=7.35e-13 AS=7.35e-13 PD=2.48e-06 PS=2.48e-06 $X=10645 $Y=4360 $D=1
M53 12 16 1 1 P_18 L=1.8e-07 W=1.5e-06 AD=7.35e-13 AS=7.35e-13 PD=2.48e-06 PS=2.48e-06 $X=10645 $Y=5820 $D=1
M54 12 3 1 1 P_18 L=1.8e-07 W=1.5e-06 AD=7.35e-13 AS=7.35e-13 PD=2.48e-06 PS=2.48e-06 $X=10645 $Y=7280 $D=1
M55 12 17 1 1 P_18 L=1.8e-07 W=1.5e-06 AD=7.35e-13 AS=7.35e-13 PD=2.48e-06 PS=2.48e-06 $X=10645 $Y=8740 $D=1
M56 13 5 1 1 P_18 L=1.8e-07 W=1.5e-06 AD=7.35e-13 AS=7.35e-13 PD=2.48e-06 PS=2.48e-06 $X=10645 $Y=10380 $D=1
M57 13 4 1 1 P_18 L=1.8e-07 W=1.5e-06 AD=7.35e-13 AS=7.35e-13 PD=2.48e-06 PS=2.48e-06 $X=10645 $Y=11840 $D=1
M58 13 15 1 1 P_18 L=1.8e-07 W=1.5e-06 AD=7.35e-13 AS=7.35e-13 PD=2.48e-06 PS=2.48e-06 $X=10645 $Y=13300 $D=1
M59 13 17 1 1 P_18 L=1.8e-07 W=1.5e-06 AD=7.35e-13 AS=7.35e-13 PD=2.48e-06 PS=2.48e-06 $X=10645 $Y=14760 $D=1
M60 14 5 1 1 P_18 L=1.8e-07 W=1.5e-06 AD=7.35e-13 AS=7.35e-13 PD=2.48e-06 PS=2.48e-06 $X=10645 $Y=16400 $D=1
M61 14 16 1 1 P_18 L=1.8e-07 W=1.5e-06 AD=7.35e-13 AS=7.35e-13 PD=2.48e-06 PS=2.48e-06 $X=10645 $Y=17860 $D=1
M62 14 15 1 1 P_18 L=1.8e-07 W=1.5e-06 AD=7.35e-13 AS=7.35e-13 PD=2.48e-06 PS=2.48e-06 $X=10645 $Y=19320 $D=1
M63 14 17 1 1 P_18 L=1.8e-07 W=1.5e-06 AD=7.35e-13 AS=7.35e-13 PD=2.48e-06 PS=2.48e-06 $X=10645 $Y=20780 $D=1
X64 4 6 1 16 inv_1u5_0u5 $T=985 -4775 0 0 $X=-175 $Y=-8040
X65 3 6 1 15 inv_1u5_0u5 $T=985 7265 0 0 $X=-175 $Y=4000
X66 2 6 1 17 inv_1u5_0u5 $T=985 19305 0 0 $X=-175 $Y=16040
.ENDS
***************************************
.SUBCKT Final_decoder VDD VSS OUT<50> OUT<49> OUT<51> OUT<48> OUT<52> OUT<53> OUT<63> OUT<56> OUT<55> OUT<59> OUT<58> OUT<54> OUT<62> OUT<61> OUT<60> OUT<57> OUT<34> OUT<33>
+ OUT<35> OUT<32> OUT<36> OUT<37> OUT<47> OUT<40> OUT<39> OUT<43> OUT<42> OUT<38> OUT<46> OUT<45> OUT<44> OUT<41> OUT<18> OUT<17> OUT<19> OUT<16> OUT<20> OUT<21>
+ OUT<31> OUT<24> OUT<23> OUT<27> OUT<26> OUT<22> OUT<30> OUT<29> OUT<28> OUT<25> OUT<2> OUT<1> OUT<3> OUT<0> OUT<4> OUT<5> OUT<15> OUT<8> OUT<7> OUT<11>
+ OUT<10> OUT<6> OUT<14> OUT<13> OUT<12> OUT<9> EN in5 in4 in3 in2 in1 in0
** N=153 EP=73 IP=204 FDC=396
M0 OUT<63> 8 VSS VSS N_18 L=1.8e-07 W=5e-07 AD=2.45e-13 AS=2.45e-13 PD=1.48e-06 PS=1.48e-06 $X=-1450 $Y=-22800 $D=0
M1 OUT<62> 7 VSS VSS N_18 L=1.8e-07 W=5e-07 AD=2.45e-13 AS=2.45e-13 PD=1.48e-06 PS=1.48e-06 $X=-1450 $Y=-21265 $D=0
M2 OUT<61> 6 VSS VSS N_18 L=1.8e-07 W=5e-07 AD=2.45e-13 AS=2.45e-13 PD=1.48e-06 PS=1.48e-06 $X=-1450 $Y=-19730 $D=0
M3 OUT<60> 5 VSS VSS N_18 L=1.8e-07 W=5e-07 AD=2.45e-13 AS=2.45e-13 PD=1.48e-06 PS=1.48e-06 $X=-1450 $Y=-18195 $D=0
M4 OUT<59> 4 VSS VSS N_18 L=1.8e-07 W=5e-07 AD=2.45e-13 AS=2.45e-13 PD=1.48e-06 PS=1.48e-06 $X=-1450 $Y=-16660 $D=0
M5 OUT<58> 3 VSS VSS N_18 L=1.8e-07 W=5e-07 AD=2.45e-13 AS=2.45e-13 PD=1.48e-06 PS=1.48e-06 $X=-1450 $Y=-15125 $D=0
M6 OUT<57> 1 VSS VSS N_18 L=1.8e-07 W=5e-07 AD=2.45e-13 AS=2.45e-13 PD=1.48e-06 PS=1.48e-06 $X=-1450 $Y=-13590 $D=0
M7 OUT<56> 2 VSS VSS N_18 L=1.8e-07 W=5e-07 AD=2.45e-13 AS=2.45e-13 PD=1.48e-06 PS=1.48e-06 $X=-1450 $Y=-12055 $D=0
M8 OUT<55> 8 VSS VSS N_18 L=1.8e-07 W=5e-07 AD=2.45e-13 AS=2.45e-13 PD=1.48e-06 PS=1.48e-06 $X=-1450 $Y=-10520 $D=0
M9 OUT<54> 7 VSS VSS N_18 L=1.8e-07 W=5e-07 AD=2.45e-13 AS=2.45e-13 PD=1.48e-06 PS=1.48e-06 $X=-1450 $Y=-8985 $D=0
M10 OUT<53> 6 VSS VSS N_18 L=1.8e-07 W=5e-07 AD=2.45e-13 AS=2.45e-13 PD=1.48e-06 PS=1.48e-06 $X=-1450 $Y=-7450 $D=0
M11 OUT<52> 5 VSS VSS N_18 L=1.8e-07 W=5e-07 AD=2.45e-13 AS=2.45e-13 PD=1.48e-06 PS=1.48e-06 $X=-1450 $Y=-5915 $D=0
M12 OUT<51> 4 VSS VSS N_18 L=1.8e-07 W=5e-07 AD=2.45e-13 AS=2.45e-13 PD=1.48e-06 PS=1.48e-06 $X=-1450 $Y=-4380 $D=0
M13 OUT<50> 3 VSS VSS N_18 L=1.8e-07 W=5e-07 AD=2.45e-13 AS=2.45e-13 PD=1.48e-06 PS=1.48e-06 $X=-1450 $Y=-2845 $D=0
M14 OUT<49> 1 VSS VSS N_18 L=1.8e-07 W=5e-07 AD=2.45e-13 AS=2.45e-13 PD=1.48e-06 PS=1.48e-06 $X=-1450 $Y=-1310 $D=0
M15 OUT<48> 2 VSS VSS N_18 L=1.8e-07 W=5e-07 AD=2.45e-13 AS=2.45e-13 PD=1.48e-06 PS=1.48e-06 $X=-1450 $Y=225 $D=0
M16 OUT<47> 8 VSS VSS N_18 L=1.8e-07 W=5e-07 AD=2.45e-13 AS=2.45e-13 PD=1.48e-06 PS=1.48e-06 $X=-1450 $Y=2180 $D=0
M17 OUT<46> 7 VSS VSS N_18 L=1.8e-07 W=5e-07 AD=2.45e-13 AS=2.45e-13 PD=1.48e-06 PS=1.48e-06 $X=-1450 $Y=3715 $D=0
M18 OUT<45> 6 VSS VSS N_18 L=1.8e-07 W=5e-07 AD=2.45e-13 AS=2.45e-13 PD=1.48e-06 PS=1.48e-06 $X=-1450 $Y=5250 $D=0
M19 OUT<44> 5 VSS VSS N_18 L=1.8e-07 W=5e-07 AD=2.45e-13 AS=2.45e-13 PD=1.48e-06 PS=1.48e-06 $X=-1450 $Y=6785 $D=0
M20 OUT<43> 4 VSS VSS N_18 L=1.8e-07 W=5e-07 AD=2.45e-13 AS=2.45e-13 PD=1.48e-06 PS=1.48e-06 $X=-1450 $Y=8320 $D=0
M21 OUT<42> 3 VSS VSS N_18 L=1.8e-07 W=5e-07 AD=2.45e-13 AS=2.45e-13 PD=1.48e-06 PS=1.48e-06 $X=-1450 $Y=9855 $D=0
M22 OUT<41> 1 VSS VSS N_18 L=1.8e-07 W=5e-07 AD=2.45e-13 AS=2.45e-13 PD=1.48e-06 PS=1.48e-06 $X=-1450 $Y=11390 $D=0
M23 OUT<40> 2 VSS VSS N_18 L=1.8e-07 W=5e-07 AD=2.45e-13 AS=2.45e-13 PD=1.48e-06 PS=1.48e-06 $X=-1450 $Y=12925 $D=0
M24 OUT<39> 8 VSS VSS N_18 L=1.8e-07 W=5e-07 AD=2.45e-13 AS=2.45e-13 PD=1.48e-06 PS=1.48e-06 $X=-1450 $Y=14460 $D=0
M25 OUT<38> 7 VSS VSS N_18 L=1.8e-07 W=5e-07 AD=2.45e-13 AS=2.45e-13 PD=1.48e-06 PS=1.48e-06 $X=-1450 $Y=15995 $D=0
M26 OUT<37> 6 VSS VSS N_18 L=1.8e-07 W=5e-07 AD=2.45e-13 AS=2.45e-13 PD=1.48e-06 PS=1.48e-06 $X=-1450 $Y=17530 $D=0
M27 OUT<36> 5 VSS VSS N_18 L=1.8e-07 W=5e-07 AD=2.45e-13 AS=2.45e-13 PD=1.48e-06 PS=1.48e-06 $X=-1450 $Y=19065 $D=0
M28 OUT<35> 4 VSS VSS N_18 L=1.8e-07 W=5e-07 AD=2.45e-13 AS=2.45e-13 PD=1.48e-06 PS=1.48e-06 $X=-1450 $Y=20600 $D=0
M29 OUT<34> 3 VSS VSS N_18 L=1.8e-07 W=5e-07 AD=2.45e-13 AS=2.45e-13 PD=1.48e-06 PS=1.48e-06 $X=-1450 $Y=22135 $D=0
M30 OUT<33> 1 VSS VSS N_18 L=1.8e-07 W=5e-07 AD=2.45e-13 AS=2.45e-13 PD=1.48e-06 PS=1.48e-06 $X=-1450 $Y=23670 $D=0
M31 OUT<32> 2 VSS VSS N_18 L=1.8e-07 W=5e-07 AD=2.45e-13 AS=2.45e-13 PD=1.48e-06 PS=1.48e-06 $X=-1450 $Y=25205 $D=0
M32 OUT<31> 8 VSS VSS N_18 L=1.8e-07 W=5e-07 AD=2.45e-13 AS=2.45e-13 PD=1.48e-06 PS=1.48e-06 $X=-1450 $Y=27160 $D=0
M33 OUT<30> 7 VSS VSS N_18 L=1.8e-07 W=5e-07 AD=2.45e-13 AS=2.45e-13 PD=1.48e-06 PS=1.48e-06 $X=-1450 $Y=28695 $D=0
M34 OUT<29> 6 VSS VSS N_18 L=1.8e-07 W=5e-07 AD=2.45e-13 AS=2.45e-13 PD=1.48e-06 PS=1.48e-06 $X=-1450 $Y=30230 $D=0
M35 OUT<28> 5 VSS VSS N_18 L=1.8e-07 W=5e-07 AD=2.45e-13 AS=2.45e-13 PD=1.48e-06 PS=1.48e-06 $X=-1450 $Y=31765 $D=0
M36 OUT<27> 4 VSS VSS N_18 L=1.8e-07 W=5e-07 AD=2.45e-13 AS=2.45e-13 PD=1.48e-06 PS=1.48e-06 $X=-1450 $Y=33300 $D=0
M37 OUT<26> 3 VSS VSS N_18 L=1.8e-07 W=5e-07 AD=2.45e-13 AS=2.45e-13 PD=1.48e-06 PS=1.48e-06 $X=-1450 $Y=34835 $D=0
M38 OUT<25> 1 VSS VSS N_18 L=1.8e-07 W=5e-07 AD=2.45e-13 AS=2.45e-13 PD=1.48e-06 PS=1.48e-06 $X=-1450 $Y=36370 $D=0
M39 OUT<24> 2 VSS VSS N_18 L=1.8e-07 W=5e-07 AD=2.45e-13 AS=2.45e-13 PD=1.48e-06 PS=1.48e-06 $X=-1450 $Y=37905 $D=0
M40 OUT<23> 8 VSS VSS N_18 L=1.8e-07 W=5e-07 AD=2.45e-13 AS=2.45e-13 PD=1.48e-06 PS=1.48e-06 $X=-1450 $Y=39440 $D=0
M41 OUT<22> 7 VSS VSS N_18 L=1.8e-07 W=5e-07 AD=2.45e-13 AS=2.45e-13 PD=1.48e-06 PS=1.48e-06 $X=-1450 $Y=40975 $D=0
M42 OUT<21> 6 VSS VSS N_18 L=1.8e-07 W=5e-07 AD=2.45e-13 AS=2.45e-13 PD=1.48e-06 PS=1.48e-06 $X=-1450 $Y=42510 $D=0
M43 OUT<20> 5 VSS VSS N_18 L=1.8e-07 W=5e-07 AD=2.45e-13 AS=2.45e-13 PD=1.48e-06 PS=1.48e-06 $X=-1450 $Y=44045 $D=0
M44 OUT<19> 4 VSS VSS N_18 L=1.8e-07 W=5e-07 AD=2.45e-13 AS=2.45e-13 PD=1.48e-06 PS=1.48e-06 $X=-1450 $Y=45580 $D=0
M45 OUT<18> 3 VSS VSS N_18 L=1.8e-07 W=5e-07 AD=2.45e-13 AS=2.45e-13 PD=1.48e-06 PS=1.48e-06 $X=-1450 $Y=47115 $D=0
M46 OUT<17> 1 VSS VSS N_18 L=1.8e-07 W=5e-07 AD=2.45e-13 AS=2.45e-13 PD=1.48e-06 PS=1.48e-06 $X=-1450 $Y=48650 $D=0
M47 OUT<16> 2 VSS VSS N_18 L=1.8e-07 W=5e-07 AD=2.45e-13 AS=2.45e-13 PD=1.48e-06 PS=1.48e-06 $X=-1450 $Y=50185 $D=0
M48 OUT<15> 8 VSS VSS N_18 L=1.8e-07 W=5e-07 AD=2.45e-13 AS=2.45e-13 PD=1.48e-06 PS=1.48e-06 $X=-1450 $Y=52140 $D=0
M49 OUT<14> 7 VSS VSS N_18 L=1.8e-07 W=5e-07 AD=2.45e-13 AS=2.45e-13 PD=1.48e-06 PS=1.48e-06 $X=-1450 $Y=53675 $D=0
M50 OUT<13> 6 VSS VSS N_18 L=1.8e-07 W=5e-07 AD=2.45e-13 AS=2.45e-13 PD=1.48e-06 PS=1.48e-06 $X=-1450 $Y=55210 $D=0
M51 OUT<12> 5 VSS VSS N_18 L=1.8e-07 W=5e-07 AD=2.45e-13 AS=2.45e-13 PD=1.48e-06 PS=1.48e-06 $X=-1450 $Y=56745 $D=0
M52 OUT<11> 4 VSS VSS N_18 L=1.8e-07 W=5e-07 AD=2.45e-13 AS=2.45e-13 PD=1.48e-06 PS=1.48e-06 $X=-1450 $Y=58280 $D=0
M53 OUT<10> 3 VSS VSS N_18 L=1.8e-07 W=5e-07 AD=2.45e-13 AS=2.45e-13 PD=1.48e-06 PS=1.48e-06 $X=-1450 $Y=59815 $D=0
M54 OUT<9> 1 VSS VSS N_18 L=1.8e-07 W=5e-07 AD=2.45e-13 AS=2.45e-13 PD=1.48e-06 PS=1.48e-06 $X=-1450 $Y=61350 $D=0
M55 OUT<8> 2 VSS VSS N_18 L=1.8e-07 W=5e-07 AD=2.45e-13 AS=2.45e-13 PD=1.48e-06 PS=1.48e-06 $X=-1450 $Y=62885 $D=0
M56 OUT<7> 8 VSS VSS N_18 L=1.8e-07 W=5e-07 AD=2.45e-13 AS=2.45e-13 PD=1.48e-06 PS=1.48e-06 $X=-1450 $Y=64420 $D=0
M57 OUT<6> 7 VSS VSS N_18 L=1.8e-07 W=5e-07 AD=2.45e-13 AS=2.45e-13 PD=1.48e-06 PS=1.48e-06 $X=-1450 $Y=65955 $D=0
M58 OUT<5> 6 VSS VSS N_18 L=1.8e-07 W=5e-07 AD=2.45e-13 AS=2.45e-13 PD=1.48e-06 PS=1.48e-06 $X=-1450 $Y=67490 $D=0
M59 OUT<4> 5 VSS VSS N_18 L=1.8e-07 W=5e-07 AD=2.45e-13 AS=2.45e-13 PD=1.48e-06 PS=1.48e-06 $X=-1450 $Y=69025 $D=0
M60 OUT<3> 4 VSS VSS N_18 L=1.8e-07 W=5e-07 AD=2.45e-13 AS=2.45e-13 PD=1.48e-06 PS=1.48e-06 $X=-1450 $Y=70560 $D=0
M61 OUT<2> 3 VSS VSS N_18 L=1.8e-07 W=5e-07 AD=2.45e-13 AS=2.45e-13 PD=1.48e-06 PS=1.48e-06 $X=-1450 $Y=72095 $D=0
M62 OUT<1> 1 VSS VSS N_18 L=1.8e-07 W=5e-07 AD=2.45e-13 AS=2.45e-13 PD=1.48e-06 PS=1.48e-06 $X=-1450 $Y=73630 $D=0
M63 OUT<0> 2 VSS VSS N_18 L=1.8e-07 W=5e-07 AD=2.45e-13 AS=2.45e-13 PD=1.48e-06 PS=1.48e-06 $X=-1450 $Y=75165 $D=0
M64 OUT<63> 15 VSS VSS N_18 L=1.8e-07 W=5e-07 AD=2.45e-13 AS=2.45e-13 PD=1.48e-06 PS=1.48e-06 $X=-300 $Y=-22800 $D=0
M65 OUT<62> 15 VSS VSS N_18 L=1.8e-07 W=5e-07 AD=2.45e-13 AS=2.45e-13 PD=1.48e-06 PS=1.48e-06 $X=-300 $Y=-21265 $D=0
M66 OUT<61> 15 VSS VSS N_18 L=1.8e-07 W=5e-07 AD=2.45e-13 AS=2.45e-13 PD=1.48e-06 PS=1.48e-06 $X=-300 $Y=-19730 $D=0
M67 OUT<60> 15 VSS VSS N_18 L=1.8e-07 W=5e-07 AD=2.45e-13 AS=2.45e-13 PD=1.48e-06 PS=1.48e-06 $X=-300 $Y=-18195 $D=0
M68 OUT<59> 15 VSS VSS N_18 L=1.8e-07 W=5e-07 AD=2.45e-13 AS=2.45e-13 PD=1.48e-06 PS=1.48e-06 $X=-300 $Y=-16660 $D=0
M69 OUT<58> 15 VSS VSS N_18 L=1.8e-07 W=5e-07 AD=2.45e-13 AS=2.45e-13 PD=1.48e-06 PS=1.48e-06 $X=-300 $Y=-15125 $D=0
M70 OUT<57> 15 VSS VSS N_18 L=1.8e-07 W=5e-07 AD=2.45e-13 AS=2.45e-13 PD=1.48e-06 PS=1.48e-06 $X=-300 $Y=-13590 $D=0
M71 OUT<56> 15 VSS VSS N_18 L=1.8e-07 W=5e-07 AD=2.45e-13 AS=2.45e-13 PD=1.48e-06 PS=1.48e-06 $X=-300 $Y=-12055 $D=0
M72 OUT<55> 14 VSS VSS N_18 L=1.8e-07 W=5e-07 AD=2.45e-13 AS=2.45e-13 PD=1.48e-06 PS=1.48e-06 $X=-300 $Y=-10520 $D=0
M73 OUT<54> 14 VSS VSS N_18 L=1.8e-07 W=5e-07 AD=2.45e-13 AS=2.45e-13 PD=1.48e-06 PS=1.48e-06 $X=-300 $Y=-8985 $D=0
M74 OUT<53> 14 VSS VSS N_18 L=1.8e-07 W=5e-07 AD=2.45e-13 AS=2.45e-13 PD=1.48e-06 PS=1.48e-06 $X=-300 $Y=-7450 $D=0
M75 OUT<52> 14 VSS VSS N_18 L=1.8e-07 W=5e-07 AD=2.45e-13 AS=2.45e-13 PD=1.48e-06 PS=1.48e-06 $X=-300 $Y=-5915 $D=0
M76 OUT<51> 14 VSS VSS N_18 L=1.8e-07 W=5e-07 AD=2.45e-13 AS=2.45e-13 PD=1.48e-06 PS=1.48e-06 $X=-300 $Y=-4380 $D=0
M77 OUT<50> 14 VSS VSS N_18 L=1.8e-07 W=5e-07 AD=2.45e-13 AS=2.45e-13 PD=1.48e-06 PS=1.48e-06 $X=-300 $Y=-2845 $D=0
M78 OUT<49> 14 VSS VSS N_18 L=1.8e-07 W=5e-07 AD=2.45e-13 AS=2.45e-13 PD=1.48e-06 PS=1.48e-06 $X=-300 $Y=-1310 $D=0
M79 OUT<48> 14 VSS VSS N_18 L=1.8e-07 W=5e-07 AD=2.45e-13 AS=2.45e-13 PD=1.48e-06 PS=1.48e-06 $X=-300 $Y=225 $D=0
M80 OUT<47> 13 VSS VSS N_18 L=1.8e-07 W=5e-07 AD=2.45e-13 AS=2.45e-13 PD=1.48e-06 PS=1.48e-06 $X=-300 $Y=2180 $D=0
M81 OUT<46> 13 VSS VSS N_18 L=1.8e-07 W=5e-07 AD=2.45e-13 AS=2.45e-13 PD=1.48e-06 PS=1.48e-06 $X=-300 $Y=3715 $D=0
M82 OUT<45> 13 VSS VSS N_18 L=1.8e-07 W=5e-07 AD=2.45e-13 AS=2.45e-13 PD=1.48e-06 PS=1.48e-06 $X=-300 $Y=5250 $D=0
M83 OUT<44> 13 VSS VSS N_18 L=1.8e-07 W=5e-07 AD=2.45e-13 AS=2.45e-13 PD=1.48e-06 PS=1.48e-06 $X=-300 $Y=6785 $D=0
M84 OUT<43> 13 VSS VSS N_18 L=1.8e-07 W=5e-07 AD=2.45e-13 AS=2.45e-13 PD=1.48e-06 PS=1.48e-06 $X=-300 $Y=8320 $D=0
M85 OUT<42> 13 VSS VSS N_18 L=1.8e-07 W=5e-07 AD=2.45e-13 AS=2.45e-13 PD=1.48e-06 PS=1.48e-06 $X=-300 $Y=9855 $D=0
M86 OUT<41> 13 VSS VSS N_18 L=1.8e-07 W=5e-07 AD=2.45e-13 AS=2.45e-13 PD=1.48e-06 PS=1.48e-06 $X=-300 $Y=11390 $D=0
M87 OUT<40> 13 VSS VSS N_18 L=1.8e-07 W=5e-07 AD=2.45e-13 AS=2.45e-13 PD=1.48e-06 PS=1.48e-06 $X=-300 $Y=12925 $D=0
M88 OUT<39> 12 VSS VSS N_18 L=1.8e-07 W=5e-07 AD=2.45e-13 AS=2.45e-13 PD=1.48e-06 PS=1.48e-06 $X=-300 $Y=14460 $D=0
M89 OUT<38> 12 VSS VSS N_18 L=1.8e-07 W=5e-07 AD=2.45e-13 AS=2.45e-13 PD=1.48e-06 PS=1.48e-06 $X=-300 $Y=15995 $D=0
M90 OUT<37> 12 VSS VSS N_18 L=1.8e-07 W=5e-07 AD=2.45e-13 AS=2.45e-13 PD=1.48e-06 PS=1.48e-06 $X=-300 $Y=17530 $D=0
M91 OUT<36> 12 VSS VSS N_18 L=1.8e-07 W=5e-07 AD=2.45e-13 AS=2.45e-13 PD=1.48e-06 PS=1.48e-06 $X=-300 $Y=19065 $D=0
M92 OUT<35> 12 VSS VSS N_18 L=1.8e-07 W=5e-07 AD=2.45e-13 AS=2.45e-13 PD=1.48e-06 PS=1.48e-06 $X=-300 $Y=20600 $D=0
M93 OUT<34> 12 VSS VSS N_18 L=1.8e-07 W=5e-07 AD=2.45e-13 AS=2.45e-13 PD=1.48e-06 PS=1.48e-06 $X=-300 $Y=22135 $D=0
M94 OUT<33> 12 VSS VSS N_18 L=1.8e-07 W=5e-07 AD=2.45e-13 AS=2.45e-13 PD=1.48e-06 PS=1.48e-06 $X=-300 $Y=23670 $D=0
M95 OUT<32> 12 VSS VSS N_18 L=1.8e-07 W=5e-07 AD=2.45e-13 AS=2.45e-13 PD=1.48e-06 PS=1.48e-06 $X=-300 $Y=25205 $D=0
M96 OUT<31> 11 VSS VSS N_18 L=1.8e-07 W=5e-07 AD=2.45e-13 AS=2.45e-13 PD=1.48e-06 PS=1.48e-06 $X=-300 $Y=27160 $D=0
M97 OUT<30> 11 VSS VSS N_18 L=1.8e-07 W=5e-07 AD=2.45e-13 AS=2.45e-13 PD=1.48e-06 PS=1.48e-06 $X=-300 $Y=28695 $D=0
M98 OUT<29> 11 VSS VSS N_18 L=1.8e-07 W=5e-07 AD=2.45e-13 AS=2.45e-13 PD=1.48e-06 PS=1.48e-06 $X=-300 $Y=30230 $D=0
M99 OUT<28> 11 VSS VSS N_18 L=1.8e-07 W=5e-07 AD=2.45e-13 AS=2.45e-13 PD=1.48e-06 PS=1.48e-06 $X=-300 $Y=31765 $D=0
M100 OUT<27> 11 VSS VSS N_18 L=1.8e-07 W=5e-07 AD=2.45e-13 AS=2.45e-13 PD=1.48e-06 PS=1.48e-06 $X=-300 $Y=33300 $D=0
M101 OUT<26> 11 VSS VSS N_18 L=1.8e-07 W=5e-07 AD=2.45e-13 AS=2.45e-13 PD=1.48e-06 PS=1.48e-06 $X=-300 $Y=34835 $D=0
M102 OUT<25> 11 VSS VSS N_18 L=1.8e-07 W=5e-07 AD=2.45e-13 AS=2.45e-13 PD=1.48e-06 PS=1.48e-06 $X=-300 $Y=36370 $D=0
M103 OUT<24> 11 VSS VSS N_18 L=1.8e-07 W=5e-07 AD=2.45e-13 AS=2.45e-13 PD=1.48e-06 PS=1.48e-06 $X=-300 $Y=37905 $D=0
M104 OUT<23> 10 VSS VSS N_18 L=1.8e-07 W=5e-07 AD=2.45e-13 AS=2.45e-13 PD=1.48e-06 PS=1.48e-06 $X=-300 $Y=39440 $D=0
M105 OUT<22> 10 VSS VSS N_18 L=1.8e-07 W=5e-07 AD=2.45e-13 AS=2.45e-13 PD=1.48e-06 PS=1.48e-06 $X=-300 $Y=40975 $D=0
M106 OUT<21> 10 VSS VSS N_18 L=1.8e-07 W=5e-07 AD=2.45e-13 AS=2.45e-13 PD=1.48e-06 PS=1.48e-06 $X=-300 $Y=42510 $D=0
M107 OUT<20> 10 VSS VSS N_18 L=1.8e-07 W=5e-07 AD=2.45e-13 AS=2.45e-13 PD=1.48e-06 PS=1.48e-06 $X=-300 $Y=44045 $D=0
M108 OUT<19> 10 VSS VSS N_18 L=1.8e-07 W=5e-07 AD=2.45e-13 AS=2.45e-13 PD=1.48e-06 PS=1.48e-06 $X=-300 $Y=45580 $D=0
M109 OUT<18> 10 VSS VSS N_18 L=1.8e-07 W=5e-07 AD=2.45e-13 AS=2.45e-13 PD=1.48e-06 PS=1.48e-06 $X=-300 $Y=47115 $D=0
M110 OUT<17> 10 VSS VSS N_18 L=1.8e-07 W=5e-07 AD=2.45e-13 AS=2.45e-13 PD=1.48e-06 PS=1.48e-06 $X=-300 $Y=48650 $D=0
M111 OUT<16> 10 VSS VSS N_18 L=1.8e-07 W=5e-07 AD=2.45e-13 AS=2.45e-13 PD=1.48e-06 PS=1.48e-06 $X=-300 $Y=50185 $D=0
M112 OUT<15> 9 VSS VSS N_18 L=1.8e-07 W=5e-07 AD=2.45e-13 AS=2.45e-13 PD=1.48e-06 PS=1.48e-06 $X=-300 $Y=52140 $D=0
M113 OUT<14> 9 VSS VSS N_18 L=1.8e-07 W=5e-07 AD=2.45e-13 AS=2.45e-13 PD=1.48e-06 PS=1.48e-06 $X=-300 $Y=53675 $D=0
M114 OUT<13> 9 VSS VSS N_18 L=1.8e-07 W=5e-07 AD=2.45e-13 AS=2.45e-13 PD=1.48e-06 PS=1.48e-06 $X=-300 $Y=55210 $D=0
M115 OUT<12> 9 VSS VSS N_18 L=1.8e-07 W=5e-07 AD=2.45e-13 AS=2.45e-13 PD=1.48e-06 PS=1.48e-06 $X=-300 $Y=56745 $D=0
M116 OUT<11> 9 VSS VSS N_18 L=1.8e-07 W=5e-07 AD=2.45e-13 AS=2.45e-13 PD=1.48e-06 PS=1.48e-06 $X=-300 $Y=58280 $D=0
M117 OUT<10> 9 VSS VSS N_18 L=1.8e-07 W=5e-07 AD=2.45e-13 AS=2.45e-13 PD=1.48e-06 PS=1.48e-06 $X=-300 $Y=59815 $D=0
M118 OUT<9> 9 VSS VSS N_18 L=1.8e-07 W=5e-07 AD=2.45e-13 AS=2.45e-13 PD=1.48e-06 PS=1.48e-06 $X=-300 $Y=61350 $D=0
M119 OUT<8> 9 VSS VSS N_18 L=1.8e-07 W=5e-07 AD=2.45e-13 AS=2.45e-13 PD=1.48e-06 PS=1.48e-06 $X=-300 $Y=62885 $D=0
M120 OUT<7> 18 VSS VSS N_18 L=1.8e-07 W=5e-07 AD=2.45e-13 AS=2.45e-13 PD=1.48e-06 PS=1.48e-06 $X=-300 $Y=64420 $D=0
M121 OUT<6> 18 VSS VSS N_18 L=1.8e-07 W=5e-07 AD=2.45e-13 AS=2.45e-13 PD=1.48e-06 PS=1.48e-06 $X=-300 $Y=65955 $D=0
M122 OUT<5> 18 VSS VSS N_18 L=1.8e-07 W=5e-07 AD=2.45e-13 AS=2.45e-13 PD=1.48e-06 PS=1.48e-06 $X=-300 $Y=67490 $D=0
M123 OUT<4> 18 VSS VSS N_18 L=1.8e-07 W=5e-07 AD=2.45e-13 AS=2.45e-13 PD=1.48e-06 PS=1.48e-06 $X=-300 $Y=69025 $D=0
M124 OUT<3> 18 VSS VSS N_18 L=1.8e-07 W=5e-07 AD=2.45e-13 AS=2.45e-13 PD=1.48e-06 PS=1.48e-06 $X=-300 $Y=70560 $D=0
M125 OUT<2> 18 VSS VSS N_18 L=1.8e-07 W=5e-07 AD=2.45e-13 AS=2.45e-13 PD=1.48e-06 PS=1.48e-06 $X=-300 $Y=72095 $D=0
M126 OUT<1> 18 VSS VSS N_18 L=1.8e-07 W=5e-07 AD=2.45e-13 AS=2.45e-13 PD=1.48e-06 PS=1.48e-06 $X=-300 $Y=73630 $D=0
M127 OUT<0> 18 VSS VSS N_18 L=1.8e-07 W=5e-07 AD=2.45e-13 AS=2.45e-13 PD=1.48e-06 PS=1.48e-06 $X=-300 $Y=75165 $D=0
M128 OUT<63> 15 84 VDD P_18 L=1.8e-07 W=1.5e-06 AD=7.35e-13 AS=7.35e-13 PD=2.48e-06 PS=2.48e-06 $X=1190 $Y=-22800 $D=1
M129 OUT<62> 15 85 VDD P_18 L=1.8e-07 W=1.5e-06 AD=7.35e-13 AS=7.35e-13 PD=2.48e-06 PS=2.48e-06 $X=1190 $Y=-21265 $D=1
M130 OUT<61> 15 86 VDD P_18 L=1.8e-07 W=1.5e-06 AD=7.35e-13 AS=7.35e-13 PD=2.48e-06 PS=2.48e-06 $X=1190 $Y=-19730 $D=1
M131 OUT<60> 15 87 VDD P_18 L=1.8e-07 W=1.5e-06 AD=7.35e-13 AS=7.35e-13 PD=2.48e-06 PS=2.48e-06 $X=1190 $Y=-18195 $D=1
M132 OUT<59> 15 88 VDD P_18 L=1.8e-07 W=1.5e-06 AD=7.35e-13 AS=7.35e-13 PD=2.48e-06 PS=2.48e-06 $X=1190 $Y=-16660 $D=1
M133 OUT<58> 15 89 VDD P_18 L=1.8e-07 W=1.5e-06 AD=7.35e-13 AS=7.35e-13 PD=2.48e-06 PS=2.48e-06 $X=1190 $Y=-15125 $D=1
M134 OUT<57> 15 90 VDD P_18 L=1.8e-07 W=1.5e-06 AD=7.35e-13 AS=7.35e-13 PD=2.48e-06 PS=2.48e-06 $X=1190 $Y=-13590 $D=1
M135 OUT<56> 15 91 VDD P_18 L=1.8e-07 W=1.5e-06 AD=7.35e-13 AS=7.35e-13 PD=2.48e-06 PS=2.48e-06 $X=1190 $Y=-12055 $D=1
M136 OUT<55> 14 92 VDD P_18 L=1.8e-07 W=1.5e-06 AD=7.35e-13 AS=7.35e-13 PD=2.48e-06 PS=2.48e-06 $X=1190 $Y=-10520 $D=1
M137 OUT<54> 14 93 VDD P_18 L=1.8e-07 W=1.5e-06 AD=7.35e-13 AS=7.35e-13 PD=2.48e-06 PS=2.48e-06 $X=1190 $Y=-8985 $D=1
M138 OUT<53> 14 94 VDD P_18 L=1.8e-07 W=1.5e-06 AD=7.35e-13 AS=7.35e-13 PD=2.48e-06 PS=2.48e-06 $X=1190 $Y=-7450 $D=1
M139 OUT<52> 14 95 VDD P_18 L=1.8e-07 W=1.5e-06 AD=7.35e-13 AS=7.35e-13 PD=2.48e-06 PS=2.48e-06 $X=1190 $Y=-5915 $D=1
M140 OUT<51> 14 96 VDD P_18 L=1.8e-07 W=1.5e-06 AD=7.35e-13 AS=7.35e-13 PD=2.48e-06 PS=2.48e-06 $X=1190 $Y=-4380 $D=1
M141 OUT<50> 14 97 VDD P_18 L=1.8e-07 W=1.5e-06 AD=7.35e-13 AS=7.35e-13 PD=2.48e-06 PS=2.48e-06 $X=1190 $Y=-2845 $D=1
M142 OUT<49> 14 98 VDD P_18 L=1.8e-07 W=1.5e-06 AD=7.35e-13 AS=7.35e-13 PD=2.48e-06 PS=2.48e-06 $X=1190 $Y=-1310 $D=1
M143 OUT<48> 14 99 VDD P_18 L=1.8e-07 W=1.5e-06 AD=7.35e-13 AS=7.35e-13 PD=2.48e-06 PS=2.48e-06 $X=1190 $Y=225 $D=1
M144 OUT<47> 13 100 VDD P_18 L=1.8e-07 W=1.5e-06 AD=7.35e-13 AS=7.35e-13 PD=2.48e-06 PS=2.48e-06 $X=1190 $Y=2180 $D=1
M145 OUT<46> 13 101 VDD P_18 L=1.8e-07 W=1.5e-06 AD=7.35e-13 AS=7.35e-13 PD=2.48e-06 PS=2.48e-06 $X=1190 $Y=3715 $D=1
M146 OUT<45> 13 102 VDD P_18 L=1.8e-07 W=1.5e-06 AD=7.35e-13 AS=7.35e-13 PD=2.48e-06 PS=2.48e-06 $X=1190 $Y=5250 $D=1
M147 OUT<44> 13 103 VDD P_18 L=1.8e-07 W=1.5e-06 AD=7.35e-13 AS=7.35e-13 PD=2.48e-06 PS=2.48e-06 $X=1190 $Y=6785 $D=1
M148 OUT<43> 13 104 VDD P_18 L=1.8e-07 W=1.5e-06 AD=7.35e-13 AS=7.35e-13 PD=2.48e-06 PS=2.48e-06 $X=1190 $Y=8320 $D=1
M149 OUT<42> 13 105 VDD P_18 L=1.8e-07 W=1.5e-06 AD=7.35e-13 AS=7.35e-13 PD=2.48e-06 PS=2.48e-06 $X=1190 $Y=9855 $D=1
M150 OUT<41> 13 106 VDD P_18 L=1.8e-07 W=1.5e-06 AD=7.35e-13 AS=7.35e-13 PD=2.48e-06 PS=2.48e-06 $X=1190 $Y=11390 $D=1
M151 OUT<40> 13 107 VDD P_18 L=1.8e-07 W=1.5e-06 AD=7.35e-13 AS=7.35e-13 PD=2.48e-06 PS=2.48e-06 $X=1190 $Y=12925 $D=1
M152 OUT<39> 12 108 VDD P_18 L=1.8e-07 W=1.5e-06 AD=7.35e-13 AS=7.35e-13 PD=2.48e-06 PS=2.48e-06 $X=1190 $Y=14460 $D=1
M153 OUT<38> 12 109 VDD P_18 L=1.8e-07 W=1.5e-06 AD=7.35e-13 AS=7.35e-13 PD=2.48e-06 PS=2.48e-06 $X=1190 $Y=15995 $D=1
M154 OUT<37> 12 110 VDD P_18 L=1.8e-07 W=1.5e-06 AD=7.35e-13 AS=7.35e-13 PD=2.48e-06 PS=2.48e-06 $X=1190 $Y=17530 $D=1
M155 OUT<36> 12 111 VDD P_18 L=1.8e-07 W=1.5e-06 AD=7.35e-13 AS=7.35e-13 PD=2.48e-06 PS=2.48e-06 $X=1190 $Y=19065 $D=1
M156 OUT<35> 12 112 VDD P_18 L=1.8e-07 W=1.5e-06 AD=7.35e-13 AS=7.35e-13 PD=2.48e-06 PS=2.48e-06 $X=1190 $Y=20600 $D=1
M157 OUT<34> 12 113 VDD P_18 L=1.8e-07 W=1.5e-06 AD=7.35e-13 AS=7.35e-13 PD=2.48e-06 PS=2.48e-06 $X=1190 $Y=22135 $D=1
M158 OUT<33> 12 114 VDD P_18 L=1.8e-07 W=1.5e-06 AD=7.35e-13 AS=7.35e-13 PD=2.48e-06 PS=2.48e-06 $X=1190 $Y=23670 $D=1
M159 OUT<32> 12 115 VDD P_18 L=1.8e-07 W=1.5e-06 AD=7.35e-13 AS=7.35e-13 PD=2.48e-06 PS=2.48e-06 $X=1190 $Y=25205 $D=1
M160 OUT<31> 11 116 VDD P_18 L=1.8e-07 W=1.5e-06 AD=7.35e-13 AS=7.35e-13 PD=2.48e-06 PS=2.48e-06 $X=1190 $Y=27160 $D=1
M161 OUT<30> 11 117 VDD P_18 L=1.8e-07 W=1.5e-06 AD=7.35e-13 AS=7.35e-13 PD=2.48e-06 PS=2.48e-06 $X=1190 $Y=28695 $D=1
M162 OUT<29> 11 118 VDD P_18 L=1.8e-07 W=1.5e-06 AD=7.35e-13 AS=7.35e-13 PD=2.48e-06 PS=2.48e-06 $X=1190 $Y=30230 $D=1
M163 OUT<28> 11 119 VDD P_18 L=1.8e-07 W=1.5e-06 AD=7.35e-13 AS=7.35e-13 PD=2.48e-06 PS=2.48e-06 $X=1190 $Y=31765 $D=1
M164 OUT<27> 11 120 VDD P_18 L=1.8e-07 W=1.5e-06 AD=7.35e-13 AS=7.35e-13 PD=2.48e-06 PS=2.48e-06 $X=1190 $Y=33300 $D=1
M165 OUT<26> 11 121 VDD P_18 L=1.8e-07 W=1.5e-06 AD=7.35e-13 AS=7.35e-13 PD=2.48e-06 PS=2.48e-06 $X=1190 $Y=34835 $D=1
M166 OUT<25> 11 122 VDD P_18 L=1.8e-07 W=1.5e-06 AD=7.35e-13 AS=7.35e-13 PD=2.48e-06 PS=2.48e-06 $X=1190 $Y=36370 $D=1
M167 OUT<24> 11 123 VDD P_18 L=1.8e-07 W=1.5e-06 AD=7.35e-13 AS=7.35e-13 PD=2.48e-06 PS=2.48e-06 $X=1190 $Y=37905 $D=1
M168 OUT<23> 10 124 VDD P_18 L=1.8e-07 W=1.5e-06 AD=7.35e-13 AS=7.35e-13 PD=2.48e-06 PS=2.48e-06 $X=1190 $Y=39440 $D=1
M169 OUT<22> 10 125 VDD P_18 L=1.8e-07 W=1.5e-06 AD=7.35e-13 AS=7.35e-13 PD=2.48e-06 PS=2.48e-06 $X=1190 $Y=40975 $D=1
M170 OUT<21> 10 126 VDD P_18 L=1.8e-07 W=1.5e-06 AD=7.35e-13 AS=7.35e-13 PD=2.48e-06 PS=2.48e-06 $X=1190 $Y=42510 $D=1
M171 OUT<20> 10 127 VDD P_18 L=1.8e-07 W=1.5e-06 AD=7.35e-13 AS=7.35e-13 PD=2.48e-06 PS=2.48e-06 $X=1190 $Y=44045 $D=1
M172 OUT<19> 10 128 VDD P_18 L=1.8e-07 W=1.5e-06 AD=7.35e-13 AS=7.35e-13 PD=2.48e-06 PS=2.48e-06 $X=1190 $Y=45580 $D=1
M173 OUT<18> 10 129 VDD P_18 L=1.8e-07 W=1.5e-06 AD=7.35e-13 AS=7.35e-13 PD=2.48e-06 PS=2.48e-06 $X=1190 $Y=47115 $D=1
M174 OUT<17> 10 130 VDD P_18 L=1.8e-07 W=1.5e-06 AD=7.35e-13 AS=7.35e-13 PD=2.48e-06 PS=2.48e-06 $X=1190 $Y=48650 $D=1
M175 OUT<16> 10 131 VDD P_18 L=1.8e-07 W=1.5e-06 AD=7.35e-13 AS=7.35e-13 PD=2.48e-06 PS=2.48e-06 $X=1190 $Y=50185 $D=1
M176 OUT<15> 9 132 VDD P_18 L=1.8e-07 W=1.5e-06 AD=7.35e-13 AS=7.35e-13 PD=2.48e-06 PS=2.48e-06 $X=1190 $Y=52140 $D=1
M177 OUT<14> 9 133 VDD P_18 L=1.8e-07 W=1.5e-06 AD=7.35e-13 AS=7.35e-13 PD=2.48e-06 PS=2.48e-06 $X=1190 $Y=53675 $D=1
M178 OUT<13> 9 134 VDD P_18 L=1.8e-07 W=1.5e-06 AD=7.35e-13 AS=7.35e-13 PD=2.48e-06 PS=2.48e-06 $X=1190 $Y=55210 $D=1
M179 OUT<12> 9 135 VDD P_18 L=1.8e-07 W=1.5e-06 AD=7.35e-13 AS=7.35e-13 PD=2.48e-06 PS=2.48e-06 $X=1190 $Y=56745 $D=1