* SPICE NETLIST
***************************************

.SUBCKT L POS NEG
.ENDS
***************************************
.SUBCKT final_precharge WL<63> WL<62> WL<61> WL<60> WL<59> WL<58> WL<57> WL<56> WL<55> WL<54> WL<53> WL<52> WL<51> WL<50> WL<49> WL<48> WL<47> WL<46> WL<45> WL<44>
+ WL<43> WL<42> WL<41> WL<40> WL<39> WL<38> WL<37> WL<36> WL<35> WL<34> WL<33> WL<32> WL<31> WL<30> WL<29> WL<28> WL<27> WL<26> WL<25> WL<24>
+ WL<23> WL<22> WL<21> WL<20> WL<19> WL<18> WL<17> WL<16> WL<15> WL<14> WL<13> WL<12> WL<11> WL<10> WL<9> WL<8> WL<7> WL<6> WL<5> WL<4>
+ WL<3> WL<2> WL<1> WL<0> BL<0> VSS BL<1> BL<2> BL<3> BL<4> BL<5> BL<6> BL<7> BL<8> BL<9> BL<10> BL<11> BL<12> BL<13> BL<14>
+ pre_b BL<15> VDD
** N=595 EP=83 IP=0 FDC=1040
M0 VSS WL<63> BL<0> VSS N_18 L=1.8e-07 W=4.7e-07 AD=1.1985e-13 AS=2.303e-13 PD=5.1e-07 PS=1.45e-06 $X=24085 $Y=-37140 $D=0
M1 VSS WL<62> 83 VSS N_18 L=1.8e-07 W=4.7e-07 AD=1.1985e-13 AS=2.303e-13 PD=5.1e-07 PS=1.45e-06 $X=24085 $Y=-35605 $D=0
M2 VSS WL<61> BL<0> VSS N_18 L=1.8e-07 W=4.7e-07 AD=1.1985e-13 AS=2.303e-13 PD=5.1e-07 PS=1.45e-06 $X=24085 $Y=-34070 $D=0
M3 VSS WL<60> 84 VSS N_18 L=1.8e-07 W=4.7e-07 AD=1.1985e-13 AS=2.303e-13 PD=5.1e-07 PS=1.45e-06 $X=24085 $Y=-32535 $D=0
M4 VSS WL<59> BL<0> VSS N_18 L=1.8e-07 W=4.7e-07 AD=1.1985e-13 AS=2.303e-13 PD=5.1e-07 PS=1.45e-06 $X=24085 $Y=-31000 $D=0
M5 VSS WL<58> 85 VSS N_18 L=1.8e-07 W=4.7e-07 AD=1.1985e-13 AS=2.303e-13 PD=5.1e-07 PS=1.45e-06 $X=24085 $Y=-29465 $D=0
M6 VSS WL<57> BL<0> VSS N_18 L=1.8e-07 W=4.7e-07 AD=1.1985e-13 AS=2.303e-13 PD=5.1e-07 PS=1.45e-06 $X=24085 $Y=-27930 $D=0
M7 VSS WL<56> 86 VSS N_18 L=1.8e-07 W=4.7e-07 AD=1.1985e-13 AS=2.303e-13 PD=5.1e-07 PS=1.45e-06 $X=24085 $Y=-26395 $D=0
M8 VSS WL<55> BL<0> VSS N_18 L=1.8e-07 W=4.7e-07 AD=1.1985e-13 AS=2.303e-13 PD=5.1e-07 PS=1.45e-06 $X=24085 $Y=-24860 $D=0
M9 VSS WL<54> 87 VSS N_18 L=1.8e-07 W=4.7e-07 AD=1.1985e-13 AS=2.303e-13 PD=5.1e-07 PS=1.45e-06 $X=24085 $Y=-23325 $D=0
M10 VSS WL<53> BL<0> VSS N_18 L=1.8e-07 W=4.7e-07 AD=1.1985e-13 AS=2.303e-13 PD=5.1e-07 PS=1.45e-06 $X=24085 $Y=-21790 $D=0
M11 VSS WL<52> 88 VSS N_18 L=1.8e-07 W=4.7e-07 AD=1.1985e-13 AS=2.303e-13 PD=5.1e-07 PS=1.45e-06 $X=24085 $Y=-20255 $D=0
M12 VSS WL<51> BL<0> VSS N_18 L=1.8e-07 W=4.7e-07 AD=1.1985e-13 AS=2.303e-13 PD=5.1e-07 PS=1.45e-06 $X=24085 $Y=-18720 $D=0
M13 VSS WL<50> 89 VSS N_18 L=1.8e-07 W=4.7e-07 AD=1.1985e-13 AS=2.303e-13 PD=5.1e-07 PS=1.45e-06 $X=24085 $Y=-17185 $D=0
M14 VSS WL<49> BL<0> VSS N_18 L=1.8e-07 W=4.7e-07 AD=1.1985e-13 AS=2.303e-13 PD=5.1e-07 PS=1.45e-06 $X=24085 $Y=-15650 $D=0
M15 VSS WL<48> 90 VSS N_18 L=1.8e-07 W=4.7e-07 AD=1.1985e-13 AS=2.303e-13 PD=5.1e-07 PS=1.45e-06 $X=24085 $Y=-14115 $D=0
M16 VSS WL<47> BL<0> VSS N_18 L=1.8e-07 W=4.7e-07 AD=1.1985e-13 AS=2.303e-13 PD=5.1e-07 PS=1.45e-06 $X=24085 $Y=-12160 $D=0
M17 VSS WL<46> 91 VSS N_18 L=1.8e-07 W=4.7e-07 AD=1.1985e-13 AS=2.303e-13 PD=5.1e-07 PS=1.45e-06 $X=24085 $Y=-10625 $D=0
M18 VSS WL<45> BL<0> VSS N_18 L=1.8e-07 W=4.7e-07 AD=1.1985e-13 AS=2.303e-13 PD=5.1e-07 PS=1.45e-06 $X=24085 $Y=-9090 $D=0
M19 VSS WL<44> 92 VSS N_18 L=1.8e-07 W=4.7e-07 AD=1.1985e-13 AS=2.303e-13 PD=5.1e-07 PS=1.45e-06 $X=24085 $Y=-7555 $D=0
M20 VSS WL<43> BL<0> VSS N_18 L=1.8e-07 W=4.7e-07 AD=1.1985e-13 AS=2.303e-13 PD=5.1e-07 PS=1.45e-06 $X=24085 $Y=-6020 $D=0
M21 VSS WL<42> 93 VSS N_18 L=1.8e-07 W=4.7e-07 AD=1.1985e-13 AS=2.303e-13 PD=5.1e-07 PS=1.45e-06 $X=24085 $Y=-4485 $D=0
M22 VSS WL<41> BL<0> VSS N_18 L=1.8e-07 W=4.7e-07 AD=1.1985e-13 AS=2.303e-13 PD=5.1e-07 PS=1.45e-06 $X=24085 $Y=-2950 $D=0
M23 VSS WL<40> 94 VSS N_18 L=1.8e-07 W=4.7e-07 AD=1.1985e-13 AS=2.303e-13 PD=5.1e-07 PS=1.45e-06 $X=24085 $Y=-1415 $D=0
M24 VSS WL<39> BL<0> VSS N_18 L=1.8e-07 W=4.7e-07 AD=1.1985e-13 AS=2.303e-13 PD=5.1e-07 PS=1.45e-06 $X=24085 $Y=120 $D=0
M25 VSS WL<38> 95 VSS N_18 L=1.8e-07 W=4.7e-07 AD=1.1985e-13 AS=2.303e-13 PD=5.1e-07 PS=1.45e-06 $X=24085 $Y=1655 $D=0
M26 VSS WL<37> BL<0> VSS N_18 L=1.8e-07 W=4.7e-07 AD=1.1985e-13 AS=2.303e-13 PD=5.1e-07 PS=1.45e-06 $X=24085 $Y=3190 $D=0
M27 VSS WL<36> 96 VSS N_18 L=1.8e-07 W=4.7e-07 AD=1.1985e-13 AS=2.303e-13 PD=5.1e-07 PS=1.45e-06 $X=24085 $Y=4725 $D=0
M28 VSS WL<35> BL<0> VSS N_18 L=1.8e-07 W=4.7e-07 AD=1.1985e-13 AS=2.303e-13 PD=5.1e-07 PS=1.45e-06 $X=24085 $Y=6260 $D=0
M29 VSS WL<34> 97 VSS N_18 L=1.8e-07 W=4.7e-07 AD=1.1985e-13 AS=2.303e-13 PD=5.1e-07 PS=1.45e-06 $X=24085 $Y=7795 $D=0
M30 VSS WL<33> BL<0> VSS N_18 L=1.8e-07 W=4.7e-07 AD=1.1985e-13 AS=2.303e-13 PD=5.1e-07 PS=1.45e-06 $X=24085 $Y=9330 $D=0
M31 VSS WL<32> 98 VSS N_18 L=1.8e-07 W=4.7e-07 AD=1.1985e-13 AS=2.303e-13 PD=5.1e-07 PS=1.45e-06 $X=24085 $Y=10865 $D=0
M32 VSS WL<31> BL<0> VSS N_18 L=1.8e-07 W=4.7e-07 AD=1.1985e-13 AS=2.303e-13 PD=5.1e-07 PS=1.45e-06 $X=24085 $Y=12820 $D=0
M33 VSS WL<30> 99 VSS N_18 L=1.8e-07 W=4.7e-07 AD=1.1985e-13 AS=2.303e-13 PD=5.1e-07 PS=1.45e-06 $X=24085 $Y=14355 $D=0
M34 VSS WL<29> BL<0> VSS N_18 L=1.8e-07 W=4.7e-07 AD=1.1985e-13 AS=2.303e-13 PD=5.1e-07 PS=1.45e-06 $X=24085 $Y=15890 $D=0
M35 VSS WL<28> 100 VSS N_18 L=1.8e-07 W=4.7e-07 AD=1.1985e-13 AS=2.303e-13 PD=5.1e-07 PS=1.45e-06 $X=24085 $Y=17425 $D=0
M36 VSS WL<27> BL<0> VSS N_18 L=1.8e-07 W=4.7e-07 AD=1.1985e-13 AS=2.303e-13 PD=5.1e-07 PS=1.45e-06 $X=24085 $Y=18960 $D=0
M37 VSS WL<26> 101 VSS N_18 L=1.8e-07 W=4.7e-07 AD=1.1985e-13 AS=2.303e-13 PD=5.1e-07 PS=1.45e-06 $X=24085 $Y=20495 $D=0
M38 VSS WL<25> BL<0> VSS N_18 L=1.8e-07 W=4.7e-07 AD=1.1985e-13 AS=2.303e-13 PD=5.1e-07 PS=1.45e-06 $X=24085 $Y=22030 $D=0
M39 VSS WL<24> 102 VSS N_18 L=1.8e-07 W=4.7e-07 AD=1.1985e-13 AS=2.303e-13 PD=5.1e-07 PS=1.45e-06 $X=24085 $Y=23565 $D=0
M40 VSS WL<23> BL<0> VSS N_18 L=1.8e-07 W=4.7e-07 AD=1.1985e-13 AS=2.303e-13 PD=5.1e-07 PS=1.45e-06 $X=24085 $Y=25100 $D=0
M41 VSS WL<22> 103 VSS N_18 L=1.8e-07 W=4.7e-07 AD=1.1985e-13 AS=2.303e-13 PD=5.1e-07 PS=1.45e-06 $X=24085 $Y=26635 $D=0
M42 VSS WL<21> BL<0> VSS N_18 L=1.8e-07 W=4.7e-07 AD=1.1985e-13 AS=2.303e-13 PD=5.1e-07 PS=1.45e-06 $X=24085 $Y=28170 $D=0
M43 VSS WL<20> 104 VSS N_18 L=1.8e-07 W=4.7e-07 AD=1.1985e-13 AS=2.303e-13 PD=5.1e-07 PS=1.45e-06 $X=24085 $Y=29705 $D=0
M44 VSS WL<19> BL<0> VSS N_18 L=1.8e-07 W=4.7e-07 AD=1.1985e-13 AS=2.303e-13 PD=5.1e-07 PS=1.45e-06 $X=24085 $Y=31240 $D=0
M45 VSS WL<18> 105 VSS N_18 L=1.8e-07 W=4.7e-07 AD=1.1985e-13 AS=2.303e-13 PD=5.1e-07 PS=1.45e-06 $X=24085 $Y=32775 $D=0
M46 VSS WL<17> BL<0> VSS N_18 L=1.8e-07 W=4.7e-07 AD=1.1985e-13 AS=2.303e-13 PD=5.1e-07 PS=1.45e-06 $X=24085 $Y=34310 $D=0
M47 VSS WL<16> 106 VSS N_18 L=1.8e-07 W=4.7e-07 AD=1.1985e-13 AS=2.303e-13 PD=5.1e-07 PS=1.45e-06 $X=24085 $Y=35845 $D=0
M48 VSS WL<15> BL<0> VSS N_18 L=1.8e-07 W=4.7e-07 AD=1.1985e-13 AS=2.303e-13 PD=5.1e-07 PS=1.45e-06 $X=24085 $Y=37800 $D=0
M49 VSS WL<14> 107 VSS N_18 L=1.8e-07 W=4.7e-07 AD=1.1985e-13 AS=2.303e-13 PD=5.1e-07 PS=1.45e-06 $X=24085 $Y=39335 $D=0
M50 VSS WL<13> BL<0> VSS N_18 L=1.8e-07 W=4.7e-07 AD=1.1985e-13 AS=2.303e-13 PD=5.1e-07 PS=1.45e-06 $X=24085 $Y=40870 $D=0
M51 VSS WL<12> 108 VSS N_18 L=1.8e-07 W=4.7e-07 AD=1.1985e-13 AS=2.303e-13 PD=5.1e-07 PS=1.45e-06 $X=24085 $Y=42405 $D=0
M52 VSS WL<11> BL<0> VSS N_18 L=1.8e-07 W=4.7e-07 AD=1.1985e-13 AS=2.303e-13 PD=5.1e-07 PS=1.45e-06 $X=24085 $Y=43940 $D=0
M53 VSS WL<10> 109 VSS N_18 L=1.8e-07 W=4.7e-07 AD=1.1985e-13 AS=2.303e-13 PD=5.1e-07 PS=1.45e-06 $X=24085 $Y=45475 $D=0
M54 VSS WL<9> BL<0> VSS N_18 L=1.8e-07 W=4.7e-07 AD=1.1985e-13 AS=2.303e-13 PD=5.1e-07 PS=1.45e-06 $X=24085 $Y=47010 $D=0
M55 VSS WL<8> 110 VSS N_18 L=1.8e-07 W=4.7e-07 AD=1.1985e-13 AS=2.303e-13 PD=5.1e-07 PS=1.45e-06 $X=24085 $Y=48545 $D=0
M56 VSS WL<7> BL<0> VSS N_18 L=1.8e-07 W=4.7e-07 AD=1.1985e-13 AS=2.303e-13 PD=5.1e-07 PS=1.45e-06 $X=24085 $Y=50080 $D=0
M57 VSS WL<6> 111 VSS N_18 L=1.8e-07 W=4.7e-07 AD=1.1985e-13 AS=2.303e-13 PD=5.1e-07 PS=1.45e-06 $X=24085 $Y=51615 $D=0
M58 VSS WL<5> BL<0> VSS N_18 L=1.8e-07 W=4.7e-07 AD=1.1985e-13 AS=2.303e-13 PD=5.1e-07 PS=1.45e-06 $X=24085 $Y=53150 $D=0
M59 VSS WL<4> 112 VSS N_18 L=1.8e-07 W=4.7e-07 AD=1.1985e-13 AS=2.303e-13 PD=5.1e-07 PS=1.45e-06 $X=24085 $Y=54685 $D=0
M60 VSS WL<3> BL<0> VSS N_18 L=1.8e-07 W=4.7e-07 AD=1.1985e-13 AS=2.303e-13 PD=5.1e-07 PS=1.45e-06 $X=24085 $Y=56220 $D=0
M61 VSS WL<2> 113 VSS N_18 L=1.8e-07 W=4.7e-07 AD=1.1985e-13 AS=2.303e-13 PD=5.1e-07 PS=1.45e-06 $X=24085 $Y=57755 $D=0
M62 VSS WL<1> BL<0> VSS N_18 L=1.8e-07 W=4.7e-07 AD=1.1985e-13 AS=2.303e-13 PD=5.1e-07 PS=1.45e-06 $X=24085 $Y=59290 $D=0
M63 VSS WL<0> 114 VSS N_18 L=1.8e-07 W=4.7e-07 AD=1.1985e-13 AS=2.303e-13 PD=5.1e-07 PS=1.45e-06 $X=24085 $Y=60825 $D=0
M64 115 WL<63> VSS VSS N_18 L=1.8e-07 W=4.7e-07 AD=2.303e-13 AS=1.1985e-13 PD=1.45e-06 PS=5.1e-07 $X=24775 $Y=-37140 $D=0
M65 BL<1> WL<62> VSS VSS N_18 L=1.8e-07 W=4.7e-07 AD=2.303e-13 AS=1.1985e-13 PD=1.45e-06 PS=5.1e-07 $X=24775 $Y=-35605 $D=0
M66 116 WL<61> VSS VSS N_18 L=1.8e-07 W=4.7e-07 AD=2.303e-13 AS=1.1985e-13 PD=1.45e-06 PS=5.1e-07 $X=24775 $Y=-34070 $D=0
M67 BL<1> WL<60> VSS VSS N_18 L=1.8e-07 W=4.7e-07 AD=2.303e-13 AS=1.1985e-13 PD=1.45e-06 PS=5.1e-07 $X=24775 $Y=-32535 $D=0
M68 117 WL<59> VSS VSS N_18 L=1.8e-07 W=4.7e-07 AD=2.303e-13 AS=1.1985e-13 PD=1.45e-06 PS=5.1e-07 $X=24775 $Y=-31000 $D=0
M69 BL<1> WL<58> VSS VSS N_18 L=1.8e-07 W=4.7e-07 AD=2.303e-13 AS=1.1985e-13 PD=1.45e-06 PS=5.1e-07 $X=24775 $Y=-29465 $D=0
M70 118 WL<57> VSS VSS N_18 L=1.8e-07 W=4.7e-07 AD=2.303e-13 AS=1.1985e-13 PD=1.45e-06 PS=5.1e-07 $X=24775 $Y=-27930 $D=0
M71 BL<1> WL<56> VSS VSS N_18 L=1.8e-07 W=4.7e-07 AD=2.303e-13 AS=1.1985e-13 PD=1.45e-06 PS=5.1e-07 $X=24775 $Y=-26395 $D=0
M72 119 WL<55> VSS VSS N_18 L=1.8e-07 W=4.7e-07 AD=2.303e-13 AS=1.1985e-13 PD=1.45e-06 PS=5.1e-07 $X=24775 $Y=-24860 $D=0
M73 BL<1> WL<54> VSS VSS N_18 L=1.8e-07 W=4.7e-07 AD=2.303e-13 AS=1.1985e-13 PD=1.45e-06 PS=5.1e-07 $X=24775 $Y=-23325 $D=0
M74 120 WL<53> VSS VSS N_18 L=1.8e-07 W=4.7e-07 AD=2.303e-13 AS=1.1985e-13 PD=1.45e-06 PS=5.1e-07 $X=24775 $Y=-21790 $D=0
M75 BL<1> WL<52> VSS VSS N_18 L=1.8e-07 W=4.7e-07 AD=2.303e-13 AS=1.1985e-13 PD=1.45e-06 PS=5.1e-07 $X=24775 $Y=-20255 $D=0
M76 121 WL<51> VSS VSS N_18 L=1.8e-07 W=4.7e-07 AD=2.303e-13 AS=1.1985e-13 PD=1.45e-06 PS=5.1e-07 $X=24775 $Y=-18720 $D=0
M77 BL<1> WL<50> VSS VSS N_18 L=1.8e-07 W=4.7e-07 AD=2.303e-13 AS=1.1985e-13 PD=1.45e-06 PS=5.1e-07 $X=24775 $Y=-17185 $D=0
M78 122 WL<49> VSS VSS N_18 L=1.8e-07 W=4.7e-07 AD=2.303e-13 AS=1.1985e-13 PD=1.45e-06 PS=5.1e-07 $X=24775 $Y=-15650 $D=0
M79 BL<1> WL<48> VSS VSS N_18 L=1.8e-07 W=4.7e-07 AD=2.303e-13 AS=1.1985e-13 PD=1.45e-06 PS=5.1e-07 $X=24775 $Y=-14115 $D=0
M80 123 WL<47> VSS VSS N_18 L=1.8e-07 W=4.7e-07 AD=2.303e-13 AS=1.1985e-13 PD=1.45e-06 PS=5.1e-07 $X=24775 $Y=-12160 $D=0
M81 BL<1> WL<46> VSS VSS N_18 L=1.8e-07 W=4.7e-07 AD=2.303e-13 AS=1.1985e-13 PD=1.45e-06 PS=5.1e-07 $X=24775 $Y=-10625 $D=0
M82 124 WL<45> VSS VSS N_18 L=1.8e-07 W=4.7e-07 AD=2.303e-13 AS=1.1985e-13 PD=1.45e-06 PS=5.1e-07 $X=24775 $Y=-9090 $D=0
M83 BL<1> WL<44> VSS VSS N_18 L=1.8e-07 W=4.7e-07 AD=2.303e-13 AS=1.1985e-13 PD=1.45e-06 PS=5.1e-07 $X=24775 $Y=-7555 $D=0
M84 125 WL<43> VSS VSS N_18 L=1.8e-07 W=4.7e-07 AD=2.303e-13 AS=1.1985e-13 PD=1.45e-06 PS=5.1e-07 $X=24775 $Y=-6020 $D=0
M85 BL<1> WL<42> VSS VSS N_18 L=1.8e-07 W=4.7e-07 AD=2.303e-13 AS=1.1985e-13 PD=1.45e-06 PS=5.1e-07 $X=24775 $Y=-4485 $D=0
M86 126 WL<41> VSS VSS N_18 L=1.8e-07 W=4.7e-07 AD=2.303e-13 AS=1.1985e-13 PD=1.45e-06 PS=5.1e-07 $X=24775 $Y=-2950 $D=0
M87 BL<1> WL<40> VSS VSS N_18 L=1.8e-07 W=4.7e-07 AD=2.303e-13 AS=1.1985e-13 PD=1.45e-06 PS=5.1e-07 $X=24775 $Y=-1415 $D=0
M88 127 WL<39> VSS VSS N_18 L=1.8e-07 W=4.7e-07 AD=2.303e-13 AS=1.1985e-13 PD=1.45e-06 PS=5.1e-07 $X=24775 $Y=120 $D=0
M89 BL<1> WL<38> VSS VSS N_18 L=1.8e-07 W=4.7e-07 AD=2.303e-13 AS=1.1985e-13 PD=1.45e-06 PS=5.1e-07 $X=24775 $Y=1655 $D=0
M90 128 WL<37> VSS VSS N_18 L=1.8e-07 W=4.7e-07 AD=2.303e-13 AS=1.1985e-13 PD=1.45e-06 PS=5.1e-07 $X=24775 $Y=3190 $D=0
M91 BL<1> WL<36> VSS VSS N_18 L=1.8e-07 W=4.7e-07 AD=2.303e-13 AS=1.1985e-13 PD=1.45e-06 PS=5.1e-07 $X=24775 $Y=4725 $D=0
M92 129 WL<35> VSS VSS N_18 L=1.8e-07 W=4.7e-07 AD=2.303e-13 AS=1.1985e-13 PD=1.45e-06 PS=5.1e-07 $X=24775 $Y=6260 $D=0
M93 BL<1> WL<34> VSS VSS N_18 L=1.8e-07 W=4.7e-07 AD=2.303e-13 AS=1.1985e-13 PD=1.45e-06 PS=5.1e-07 $X=24775 $Y=7795 $D=0
M94 130 WL<33> VSS VSS N_18 L=1.8e-07 W=4.7e-07 AD=2.303e-13 AS=1.1985e-13 PD=1.45e-06 PS=5.1e-07 $X=24775 $Y=9330 $D=0
M95 BL<1> WL<32> VSS VSS N_18 L=1.8e-07 W=4.7e-07 AD=2.303e-13 AS=1.1985e-13 PD=1.45e-06 PS=5.1e-07 $X=24775 $Y=10865 $D=0
M96 131 WL<31> VSS VSS N_18 L=1.8e-07 W=4.7e-07 AD=2.303e-13 AS=1.1985e-13 PD=1.45e-06 PS=5.1e-07 $X=24775 $Y=12820 $D=0
M97 BL<1> WL<30> VSS VSS N_18 L=1.8e-07 W=4.7e-07 AD=2.303e-13 AS=1.1985e-13 PD=1.45e-06 PS=5.1e-07 $X=24775 $Y=14355 $D=0
M98 132 WL<29> VSS VSS N_18 L=1.8e-07 W=4.7e-07 AD=2.303e-13 AS=1.1985e-13 PD=1.45e-06 PS=5.1e-07 $X=24775 $Y=15890 $D=0
M99 BL<1> WL<28> VSS VSS N_18 L=1.8e-07 W=4.7e-07 AD=2.303e-13 AS=1.1985e-13 PD=1.45e-06 PS=5.1e-07 $X=24775 $Y=17425 $D=0
M100 133 WL<27> VSS VSS N_18 L=1.8e-07 W=4.7e-07 AD=2.303e-13 AS=1.1985e-13 PD=1.45e-06 PS=5.1e-07 $X=24775 $Y=18960 $D=0
M101 BL<1> WL<26> VSS VSS N_18 L=1.8e-07 W=4.7e-07 AD=2.303e-13 AS=1.1985e-13 PD=1.45e-06 PS=5.1e-07 $X=24775 $Y=20495 $D=0
M102 134 WL<25> VSS VSS N_18 L=1.8e-07 W=4.7e-07 AD=2.303e-13 AS=1.1985e-13 PD=1.45e-06 PS=5.1e-07 $X=24775 $Y=22030 $D=0
M103 BL<1> WL<24> VSS VSS N_18 L=1.8e-07 W=4.7e-07 AD=2.303e-13 AS=1.1985e-13 PD=1.45e-06 PS=5.1e-07 $X=24775 $Y=23565 $D=0
M104 135 WL<23> VSS VSS N_18 L=1.8e-07 W=4.7e-07 AD=2.303e-13 AS=1.1985e-13 PD=1.45e-06 PS=5.1e-07 $X=24775 $Y=25100 $D=0
M105 BL<1> WL<22> VSS VSS N_18 L=1.8e-07 W=4.7e-07 AD=2.303e-13 AS=1.1985e-13 PD=1.45e-06 PS=5.1e-07 $X=24775 $Y=26635 $D=0
M106 136 WL<21> VSS VSS N_18 L=1.8e-07 W=4.7e-07 AD=2.303e-13 AS=1.1985e-13 PD=1.45e-06 PS=5.1e-07 $X=24775 $Y=28170 $D=0
M107 BL<1> WL<20> VSS VSS N_18 L=1.8e-07 W=4.7e-07 AD=2.303e-13 AS=1.1985e-13 PD=1.45e-06 PS=5.1e-07 $X=24775 $Y=29705 $D=0
M108 137 WL<19> VSS VSS N_18 L=1.8e-07 W=4.7e-07 AD=2.303e-13 AS=1.1985e-13 PD=1.45e-06 PS=5.1e-07 $X=24775 $Y=31240 $D=0
M109 BL<1> WL<18> VSS VSS N_18 L=1.8e-07 W=4.7e-07 AD=2.303e-13 AS=1.1985e-13 PD=1.45e-06 PS=5.1e-07 $X=24775 $Y=32775 $D=0
M110 138 WL<17> VSS VSS N_18 L=1.8e-07 W=4.7e-07 AD=2.303e-13 AS=1.1985e-13 PD=1.45e-06 PS=5.1e-07 $X=24775 $Y=34310 $D=0
M111 BL<1> WL<16> VSS VSS N_18 L=1.8e-07 W=4.7e-07 AD=2.303e-13 AS=1.1985e-13 PD=1.45e-06 PS=5.1e-07 $X=24775 $Y=35845 $D=0
M112 139 WL<15> VSS VSS N_18 L=1.8e-07 W=4.7e-07 AD=2.303e-13 AS=1.1985e-13 PD=1.45e-06 PS=5.1e-07 $X=24775 $Y=37800 $D=0
M113 BL<1> WL<14> VSS VSS N_18 L=1.8e-07 W=4.7e-07 AD=2.303e-13 AS=1.1985e-13 PD=1.45e-06 PS=5.1e-07 $X=24775 $Y=39335 $D=0
M114 140 WL<13> VSS VSS N_18 L=1.8e-07 W=4.7e-07 AD=2.303e-13 AS=1.1985e-13 PD=1.45e-06 PS=5.1e-07 $X=24775 $Y=40870 $D=0
M115 BL<1> WL<12> VSS VSS N_18 L=1.8e-07 W=4.7e-07 AD=2.303e-13 AS=1.1985e-13 PD=1.45e-06 PS=5.1e-07 $X=24775 $Y=42405 $D=0
M116 141 WL<11> VSS VSS N_18 L=1.8e-07 W=4.7e-07 AD=2.303e-13 AS=1.1985e-13 PD=1.45e-06 PS=5.1e-07 $X=24775 $Y=43940 $D=0
M117 BL<1> WL<10> VSS VSS N_18 L=1.8e-07 W=4.7e-07 AD=2.303e-13 AS=1.1985e-13 PD=1.45e-06 PS=5.1e-07 $X=24775 $Y=45475 $D=0
M118 142 WL<9> VSS VSS N_18 L=1.8e-07 W=4.7e-07 AD=2.303e-13 AS=1.1985e-13 PD=1.45e-06 PS=5.1e-07 $X=24775 $Y=47010 $D=0
M119 BL<1> WL<8> VSS VSS N_18 L=1.8e-07 W=4.7e-07 AD=2.303e-13 AS=1.1985e-13 PD=1.45e-06 PS=5.1e-07 $X=24775 $Y=48545 $D=0
M120 143 WL<7> VSS VSS N_18 L=1.8e-07 W=4.7e-07 AD=2.303e-13 AS=1.1985e-13 PD=1.45e-06 PS=5.1e-07 $X=24775 $Y=50080 $D=0
M121 BL<1> WL<6> VSS VSS N_18 L=1.8e-07 W=4.7e-07 AD=2.303e-13 AS=1.1985e-13 PD=1.45e-06 PS=5.1e-07 $X=24775 $Y=51615 $D=0
M122 144 WL<5> VSS VSS N_18 L=1.8e-07 W=4.7e-07 AD=2.303e-13 AS=1.1985e-13 PD=1.45e-06 PS=5.1e-07 $X=24775 $Y=53150 $D=0
M123 BL<1> WL<4> VSS VSS N_18 L=1.8e-07 W=4.7e-07 AD=2.303e-13 AS=1.1985e-13 PD=1.45e-06 PS=5.1e-07 $X=24775 $Y=54685 $D=0
M124 145 WL<3> VSS VSS N_18 L=1.8e-07 W=4.7e-07 AD=2.303e-13 AS=1.1985e-13 PD=1.45e-06 PS=5.1e-07 $X=24775 $Y=56220 $D=0
M125 BL<1> WL<2> VSS VSS N_18 L=1.8e-07 W=4.7e-07 AD=2.303e-13 AS=1.1985e-13 PD=1.45e-06 PS=5.1e-07 $X=24775 $Y=57755 $D=0
M126 146 WL<1> VSS VSS N_18 L=1.8e-07 W=4.7e-07 AD=2.303e-13 AS=1.1985e-13 PD=1.45e-06 PS=5.1e-07 $X=24775 $Y=59290 $D=0
M127 BL<1> WL<0> VSS VSS N_18 L=1.8e-07 W=4.7e-07 AD=2.303e-13 AS=1.1985e-13 PD=1.45e-06 PS=5.1e-07 $X=24775 $Y=60825 $D=0
M128 VSS WL<63> BL<2> VSS N_18 L=1.8e-07 W=4.7e-07 AD=1.1985e-13 AS=2.303e-13 PD=5.1e-07 PS=1.45e-06 $X=26235 $Y=-37140 $D=0
M129 VSS WL<62> 147 VSS N_18 L=1.8e-07 W=4.7e-07 AD=1.1985e-13 AS=2.303e-13 PD=5.1e-07 PS=1.45e-06 $X=26235 $Y=-35605 $D=0
M130 VSS WL<61> BL<2> VSS N_18 L=1.8e-07 W=4.7e-07 AD=1.1985e-13 AS=2.303e-13 PD=5.1e-07 PS=1.45e-06 $X=26235 $Y=-34070 $D=0
M131 VSS WL<60> 148 VSS N_18 L=1.8e-07 W=4.7e-07 AD=1.1985e-13 AS=2.303e-13 PD=5.1e-07 PS=1.45e-06 $X=26235 $Y=-32535 $D=0
M132 VSS WL<59> BL<2> VSS N_18 L=1.8e-07 W=4.7e-07 AD=1.1985e-13 AS=2.303e-13 PD=5.1e-07 PS=1.45e-06 $X=26235 $Y=-31000 $D=0
M133 VSS WL<58> 149 VSS N_18 L=1.8e-07 W=4.7e-07 AD=1.1985e-13 AS=2.303e-13 PD=5.1e-07 PS=1.45e-06 $X=26235 $Y=-29465 $D=0
M134 VSS WL<57> BL<2> VSS N_18 L=1.8e-07 W=4.7e-07 AD=1.1985e-13 AS=2.303e-13 PD=5.1e-07 PS=1.45e-06 $X=26235 $Y=-27930 $D=0
M135 VSS WL<56> 150 VSS N_18 L=1.8e-07 W=4.7e-07 AD=1.1985e-13 AS=2.303e-13 PD=5.1e-07 PS=1.45e-06 $X=26235 $Y=-26395 $D=0
M136 VSS WL<55> BL<2> VSS N_18 L=1.8e-07 W=4.7e-07 AD=1.1985e-13 AS=2.303e-13 PD=5.1e-07 PS=1.45e-06 $X=26235 $Y=-24860 $D=0
M137 VSS WL<54> 151 VSS N_18 L=1.8e-07 W=4.7e-07 AD=1.1985e-13 AS=2.303e-13 PD=5.1e-07 PS=1.45e-06 $X=26235 $Y=-23325 $D=0
M138 VSS WL<53> BL<2> VSS N_18 L=1.8e-07 W=4.7e-07 AD=1.1985e-13 AS=2.303e-13 PD=5.1e-07 PS=1.45e-06 $X=26235 $Y=-21790 $D=0
M139 VSS WL<52> 152 VSS N_18 L=1.8e-07 W=4.7e-07 AD=1.1985e-13 AS=2.303e-13 PD=5.1e-07 PS=1.45e-06 $X=26235 $Y=-20255 $D=0
M140 VSS WL<51> BL<2> VSS N_18 L=1.8e-07 W=4.7e-07 AD=1.1985e-13 AS=2.303e-13 PD=5.1e-07 PS=1.45e-06 $X=26235 $Y=-18720 $D=0
M141 VSS WL<50> 153 VSS N_18 L=1.8e-07 W=4.7e-07 AD=1.1985e-13 AS=2.303e-13 PD=5.1e-07 PS=1.45e-06 $X=26235 $Y=-17185 $D=0
M142 VSS WL<49> BL<2> VSS N_18 L=1.8e-07 W=4.7e-07 AD=1.1985e-13 AS=2.303e-13 PD=5.1e-07 PS=1.45e-06 $X=26235 $Y=-15650 $D=0
M143 VSS WL<48> 154 VSS N_18 L=1.8e-07 W=4.7e-07 AD=1.1985e-13 AS=2.303e-13 PD=5.1e-07 PS=1.45e-06 $X=26235 $Y=-14115 $D=0
M144 VSS WL<47> BL<2> VSS N_18 L=1.8e-07 W=4.7e-07 AD=1.1985e-13 AS=2.303e-13 PD=5.1e-07 PS=1.45e-06 $X=26235 $Y=-12160 $D=0
M145 VSS WL<46> 155 VSS N_18 L=1.8e-07 W=4.7e-07 AD=1.1985e-13 AS=2.303e-13 PD=5.1e-07 PS=1.45e-06 $X=26235 $Y=-10625 $D=0
M146 VSS WL<45> BL<2> VSS N_18 L=1.8e-07 W=4.7e-07 AD=1.1985e-13 AS=2.303e-13 PD=5.1e-07 PS=1.45e-06 $X=26235 $Y=-9090 $D=0
M147 VSS WL<44> 156 VSS N_18 L=1.8e-07 W=4.7e-07 AD=1.1985e-13 AS=2.303e-13 PD=5.1e-07 PS=1.45e-06 $X=26235 $Y=-7555 $D=0
M148 VSS WL<43> BL<2> VSS N_18 L=1.8e-07 W=4.7e-07 AD=1.1985e-13 AS=2.303e-13 PD=5.1e-07 PS=1.45e-06 $X=26235 $Y=-6020 $D=0
M149 VSS WL<42> 157 VSS N_18 L=1.8e-07 W=4.7e-07 AD=1.1985e-13 AS=2.303e-13 PD=5.1e-07 PS=1.45e-06 $X=26235 $Y=-4485 $D=0
M150 VSS WL<41> BL<2> VSS N_18 L=1.8e-07 W=4.7e-07 AD=1.1985e-13 AS=2.303e-13 PD=5.1e-07 PS=1.45e-06 $X=26235 $Y=-2950 $D=0
M151 VSS WL<40> 158 VSS N_18 L=1.8e-07 W=4.7e-07 AD=1.1985e-13 AS=2.303e-13 PD=5.1e-07 PS=1.45e-06 $X=26235 $Y=-1415 $D=0
M152 VSS WL<39> BL<2> VSS N_18 L=1.8e-07 W=4.7e-07 AD=1.1985e-13 AS=2.303e-13 PD=5.1e-07 PS=1.45e-06 $X=26235 $Y=120 $D=0
M153 VSS WL<38> 159 VSS N_18 L=1.8e-07 W=4.7e-07 AD=1.1985e-13 AS=2.303e-13 PD=5.1e-07 PS=1.45e-06 $X=26235 $Y=1655 $D=0
M154 VSS WL<37> BL<2> VSS N_18 L=1.8e-07 W=4.7e-07 AD=1.1985e-13 AS=2.303e-13 PD=5.1e-07 PS=1.45e-06 $X=26235 $Y=3190 $D=0
M155 VSS WL<36> 160 VSS N_18 L=1.8e-07 W=4.7e-07 AD=1.1985e-13 AS=2.303e-13 PD=5.1e-07 PS=1.45e-06 $X=26235 $Y=4725 $D=0
M156 VSS WL<35> BL<2> VSS N_18 L=1.8e-07 W=4.7e-07 AD=1.1985e-13 AS=2.303e-13 PD=5.1e-07 PS=1.45e-06 $X=26235 $Y=6260 $D=0
M157 VSS WL<34> 161 VSS N_18 L=1.8e-07 W=4.7e-07 AD=1.1985e-13 AS=2.303e-13 PD=5.1e-07 PS=1.45e-06 $X=26235 $Y=7795 $D=0
M158 VSS WL<33> BL<2> VSS N_18 L=1.8e-07 W=4.7e-07 AD=1.1985e-13 AS=2.303e-13 PD=5.1e-07 PS=1.45e-06 $X=26235 $Y=9330 $D=0
M159 VSS WL<32> 162 VSS N_18 L=1.8e-07 W=4.7e-07 AD=1.1985e-13 AS=2.303e-13 PD=5.1e-07 PS=1.45e-06 $X=26235 $Y=10865 $D=0
M160 VSS WL<31> BL<2> VSS N_18 L=1.8e-07 W=4.7e-07 AD=1.1985e-13 AS=2.303e-13 PD=5.1e-07 PS=1.45e-06 $X=26235 $Y=12820 $D=0
M161 VSS WL<30> 163 VSS N_18 L=1.8e-07 W=4.7e-07 AD=1.1985e-13 AS=2.303e-13 PD=5.1e-07 PS=1.45e-06 $X=26235 $Y=14355 $D=0
M162 VSS WL<29> BL<2> VSS N_18 L=1.8e-07 W=4.7e-07 AD=1.1985e-13 AS=2.303e-13 PD=5.1e-07 PS=1.45e-06 $X=26235 $Y=15890 $D=0
M163 VSS WL<28> 164 VSS N_18 L=1.8e-07 W=4.7e-07 AD=1.1985e-13 AS=2.303e-13 PD=5.1e-07 PS=1.45e-06 $X=26235 $Y=17425 $D=0
M164 VSS WL<27> BL<2> VSS N_18 L=1.8e-07 W=4.7e-07 AD=1.1985e-13 AS=2.303e-13 PD=5.1e-07 PS=1.45e-06 $X=26235 $Y=18960 $D=0
M165 VSS WL<26> 165 VSS N_18 L=1.8e-07 W=4.7e-07 AD=1.1985e-13 AS=2.303e-13 PD=5.1e-07 PS=1.45e-06 $X=26235 $Y=20495 $D=0
M166 VSS WL<25> BL<2> VSS N_18 L=1.8e-07 W=4.7e-07 AD=1.1985e-13 AS=2.303e-13 PD=5.1e-07 PS=1.45e-06 $X=26235 $Y=22030 $D=0
M167 VSS WL<24> 166 VSS N_18 L=1.8e-07 W=4.7e-07 AD=1.1985e-13 AS=2.303e-13 PD=5.1e-07 PS=1.45e-06 $X=26235 $Y=23565 $D=0
M168 VSS WL<23> BL<2> VSS N_18 L=1.8e-07 W=4.7e-07 AD=1.1985e-13 AS=2.303e-13 PD=5.1e-07 PS=1.45e-06 $X=26235 $Y=25100 $D=0
M169 VSS WL<22> 167 VSS N_18 L=1.8e-07 W=4.7e-07 AD=1.1985e-13 AS=2.303e-13 PD=5.1e-07 PS=1.45e-06 $X=26235 $Y=26635 $D=0
M170 VSS WL<21> BL<2> VSS N_18 L=1.8e-07 W=4.7e-07 AD=1.1985e-13 AS=2.303e-13 PD=5.1e-07 PS=1.45e-06 $X=26235 $Y=28170 $D=0
M171 VSS WL<20> 168 VSS N_18 L=1.8e-07 W=4.7e-07 AD=1.1985e-13 AS=2.303e-13 PD=5.1e-07 PS=1.45e-06 $X=26235 $Y=29705 $D=0
M172 VSS WL<19> BL<2> VSS N_18 L=1.8e-07 W=4.7e-07 AD=1.1985e-13 AS=2.303e-13 PD=5.1e-07 PS=1.45e-06 $X=26235 $Y=31240 $D=0
M173 VSS WL<18> 169 VSS N_18 L=1.8e-07 W=4.7e-07 AD=1.1985e-13 AS=2.303e-13 PD=5.1e-07 PS=1.45e-06 $X=26235 $Y=32775 $D=0
M174 VSS WL<17> BL<2> VSS N_18 L=1.8e-07 W=4.7e-07 AD=1.1985e-13 AS=2.303e-13 PD=5.1e-07 PS=1.45e-06 $X=26235 $Y=34310 $D=0
M175 VSS WL<16> 170 VSS N_18 L=1.8e-07 W=4.7e-07 AD=1.1985e-13 AS=2.303e-13 PD=5.1e-07 PS=1.45e-06 $X=26235 $Y=35845 $D=0
M176 VSS WL<15> BL<2> VSS N_18 L=1.8e-07 W=4.7e-07 AD=1.1985e-13 AS=2.303e-13 PD=5.1e-07 PS=1.45e-06 $X=26235 $Y=37800 $D=0
M177 VSS WL<14> 171 VSS N_18 L=1.8e-07 W=4.7e-07 AD=1.1985e-13 AS=2.303e-13 PD=5.1e-07 PS=1.45e-06 $X=26235 $Y=39335 $D=0
M178 VSS WL<13> BL<2> VSS N_18 L=1.8e-07 W=4.7e-07 AD=1.1985e-13 AS=2.303e-13 PD=5.1e-07 PS=1.45e-06 $X=26235 $Y=40870 $D=0
M179 VSS WL<12> 172 VSS N_18 L=1.8e-07 W=4.7e-07 AD=1.1985e-13 AS=2.303e-13 PD=5.1e-07 PS=1.45e-06 $X=26235 $Y=42405 $D=0
M180 VSS WL<11> BL<2> VSS N_18 L=1.8e-07 W=4.7e-07 AD=1.1985e-13 AS=2.303e-13 PD=5.1e-07 PS=1.45e-06 $X=26235 $Y=43940 $D=0
M181 VSS WL<10> 173 VSS N_18 L=1.8e-07 W=4.7e-07 AD=1.1985e-13 AS=2.303e-13 PD=5.1e-07 PS=1.45e-06 $X=26235 $Y=45475 $D=0
M182 VSS WL<9> BL<2> VSS N_18 L=1.8e-07 W=4.7e-07 AD=1.1985e-13 AS=2.303e-13 PD=5.1e-07 PS=1.45e-06 $X=26235 $Y=47010 $D=0
M183 VSS WL<8> 174 VSS N_18 L=1.8e-07 W=4.7e-07 AD=1.1985e-13 AS=2.303e-13 PD=5.1e-07 PS=1.45e-06 $X=26235 $Y=48545 $D=0
M184 VSS WL<7> BL<2> VSS N_18 L=1.8e-07 W=4.7e-07 AD=1.1985e-13 AS=2.303e-13 PD=5.1e-07 PS=1.45e-06 $X=26235 $Y=50080 $D=0
M185 VSS WL<6> 175 VSS N_18 L=1.8e-07 W=4.7e-07 AD=1.1985e-13 AS=2.303e-13 PD=5.1e-07 PS=1.45e-06 $X=26235 $Y=51615 $D=0
M186 VSS WL<5> BL<2> VSS N_18 L=1.8e-07 W=4.7e-07 AD=1.1985e-13 AS=2.303e-13 PD=5.1e-07 PS=1.45e-06 $X=26235 $Y=53150 $D=0
M187 VSS WL<4> 176 VSS N_18 L=1.8e-07 W=4.7e-07 AD=1.1985e-13 AS=2.303e-13 PD=5.1e-07 PS=1.45e-06 $X=26235 $Y=54685 $D=0
M188 VSS WL<3> BL<2> VSS N_18 L=1.8e-07 W=4.7e-07 AD=1.1985e-13 AS=2.303e-13 PD=5.1e-07 PS=1.45e-06 $X=26235 $Y=56220 $D=0
M189 VSS WL<2> 177 VSS N_18 L=1.8e-07 W=4.7e-07 AD=1.1985e-13 AS=2.303e-13 PD=5.1e-07 PS=1.45e-06 $X=26235 $Y=57755 $D=0
M190 VSS WL<1> BL<2> VSS N_18 L=1.8e-07 W=4.7e-07 AD=1.1985e-13 AS=2.303e-13 PD=5.1e-07 PS=1.45e-06 $X=26235 $Y=59290 $D=0
M191 VSS WL<0> 178 VSS N_18 L=1.8e-07 W=4.7e-07 AD=1.1985e-13 AS=2.303e-13 PD=5.1e-07 PS=1.45e-06 $X=26235 $Y=60825 $D=0
M192 179 WL<63> VSS VSS N_18 L=1.8e-07 W=4.7e-07 AD=2.303e-13 AS=1.1985e-13 PD=1.45e-06 PS=5.1e-07 $X=26925 $Y=-37140 $D=0
M193 BL<3> WL<62> VSS VSS N_18 L=1.8e-07 W=4.7e-07 AD=2.303e-13 AS=1.1985e-13 PD=1.45e-06 PS=5.1e-07 $X=26925 $Y=-35605 $D=0
M194 180 WL<61> VSS VSS N_18 L=1.8e-07 W=4.7e-07 AD=2.303e-13 AS=1.1985e-13 PD=1.45e-06 PS=5.1e-07 $X=26925 $Y=-34070 $D=0
M195 BL<3> WL<60> VSS VSS N_18 L=1.8e-07 W=4.7e-07 AD=2.303e-13 AS=1.1985e-13 PD=1.45e-06 PS=5.1e-07 $X=26925 $Y=-32535 $D=0
M196 181 WL<59> VSS VSS N_18 L=1.8e-07 W=4.7e-07 AD=2.303e-13 AS=1.1985e-13 PD=1.45e-06 PS=5.1e-07 $X=26925 $Y=-31000 $D=0
M197 BL<3> WL<58> VSS VSS N_18 L=1.8e-07 W=4.7e-07 AD=2.303e-13 AS=1.1985e-13 PD=1.45e-06 PS=5.1e-07 $X=26925 $Y=-29465 $D=0
M198 182 WL<57> VSS VSS N_18 L=1.8e-07 W=4.7e-07 AD=2.303e-13 AS=1.1985e-13 PD=1.45e-06 PS=5.1e-07 $X=26925 $Y=-27930 $D=0
M199 BL<3> WL<56> VSS VSS N_18 L=1.8e-07 W=4.7e-07 AD=2.303e-13 AS=1.1985e-13 PD=1.45e-06 PS=5.1e-07 $X=26925 $Y=-26395 $D=0
M200 183 WL<55> VSS VSS N_18 L=1.8e-07 W=4.7e-07 AD=2.303e-13 AS=1.1985e-13 PD=1.45e-06 PS=5.1e-07 $X=26925 $Y=-24860 $D=0
M201 BL<3> WL<54> VSS VSS N_18 L=1.8e-07 W=4.7e-07 AD=2.303e-13 AS=1.1985e-13 PD=1.45e-06 PS=5.1e-07 $X=26925 $Y=-23325 $D=0
M202 184 WL<53> VSS VSS N_18 L=1.8e-07 W=4.7e-07 AD=2.303e-13 AS=1.1985e-13 PD=1.45e-06 PS=5.1e-07 $X=26925 $Y=-21790 $D=0
M203 BL<3> WL<52> VSS VSS N_18 L=1.8e-07 W=4.7e-07 AD=2.303e-13 AS=1.1985e-13 PD=1.45e-06 PS=5.1e-07 $X=26925 $Y=-20255 $D=0
M204 185 WL<51> VSS VSS N_18 L=1.8e-07 W=4.7e-07 AD=2.303e-13 AS=1.1985e-13 PD=1.45e-06 PS=5.1e-07 $X=26925 $Y=-18720 $D=0
M205 BL<3> WL<50> VSS VSS N_18 L=1.8e-07 W=4.7e-07 AD=2.303e-13 AS=1.1985e-13 PD=1.45e-06 PS=5.1e-07 $X=26925 $Y=-17185 $D=0
M206 186 WL<49> VSS VSS N_18 L=1.8e-07 W=4.7e-07 AD=2.303e-13 AS=1.1985e-13 PD=1.45e-06 PS=5.1e-07 $X=26925 $Y=-15650 $D=0
M207 BL<3> WL<48> VSS VSS N_18 L=1.8e-07 W=4.7e-07 AD=2.303e-13 AS=1.1985e-13 PD=1.45e-06 PS=5.1e-07 $X=26925 $Y=-14115 $D=0
M208 187 WL<47> VSS VSS N_18 L=1.8e-07 W=4.7e-07 AD=2.303e-13 AS=1.1985e-13 PD=1.45e-06 PS=5.1e-07 $X=26925 $Y=-12160 $D=0
M209 BL<3> WL<46> VSS VSS N_18 L=1.8e-07 W=4.7e-07 AD=2.303e-13 AS=1.1985e-13 PD=1.45e-06 PS=5.1e-07 $X=26925 $Y=-10625 $D=0
M210 188 WL<45> VSS VSS N_18 L=1.8e-07 W=4.7e-07 AD=2.303e-13 AS=1.1985e-13 PD=1.45e-06 PS=5.1e-07 $X=26925 $Y=-9090 $D=0
M211 BL<3> WL<44> VSS VSS N_18 L=1.8e-07 W=4.7e-07 AD=2.303e-13 AS=1.1985e-13 PD=1.45e-06 PS=5.1e-07 $X=26925 $Y=-7555 $D=0
M212 189 WL<43> VSS VSS N_18 L=1.8e-07 W=4.7e-07 AD=2.303e-13 AS=1.1985e-13 PD=1.45e-06 PS=5.1e-07 $X=26925 $Y=-6020 $D=0
M213 BL<3> WL<42> VSS VSS N_18 L=1.8e-07 W=4.7e-07 AD=2.303e-13 AS=1.1985e-13 PD=1.45e-06 PS=5.1e-07 $X=26925 $Y=-4485 $D=0
M214 190 WL<41> VSS VSS N_18 L=1.8e-07 W=4.7e-07 AD=2.303e-13 AS=1.1985e-13 PD=1.45e-06 PS=5.1e-07 $X=26925 $Y=-2950 $D=0
M215 BL<3> WL<40> VSS VSS N_18 L=1.8e-07 W=4.7e-07 AD=2.303e-13 AS=1.1985e-13 PD=1.45e-06 PS=5.1e-07 $X=26925 $Y=-1415 $D=0
M216 191 WL<39> VSS VSS N_18 L=1.8e-07 W=4.7e-07 AD=2.303e-13 AS=1.1985e-13 PD=1.45e-06 PS=5.1e-07 $X=26925 $Y=120 $D=0
M217 BL<3> WL<38> VSS VSS N_18 L=1.8e-07 W=4.7e-07 AD=2.303e-13 AS=1.1985e-13 PD=1.45e-06 PS=5.1e-07 $X=26925 $Y=1655 $D=0
M218 192 WL<37> VSS VSS N_18 L=1.8e-07 W=4.7e-07 AD=2.303e-13 AS=1.1985e-13 PD=1.45e-06 PS=5.1e-07 $X=26925 $Y=3190 $D=0
M219 BL<3> WL<36> VSS VSS N_18 L=1.8e-07 W=4.7e-07 AD=2.303e-13 AS=1.1985e-13 PD=1.45e-06 PS=5.1e-07 $X=26925 $Y=4725 $D=0
M220 193 WL<35> VSS VSS N_18 L=1.8e-07 W=4.7e-07 AD=2.303e-13 AS=1.1985e-13 PD=1.45e-06 PS=5.1e-07 $X=26925 $Y=6260 $D=0
M221 BL<3> WL<34> VSS VSS N_18 L=1.8e-07 W=4.7e-07 AD=2.303e-13 AS=1.1985e-13 PD=1.45e-06 PS=5.1e-07 $X=26925 $Y=7795 $D=0
M222 194 WL<33> VSS VSS N_18 L=1.8e-07 W=4.7e-07 AD=2.303e-13 AS=1.1985e-13 PD=1.45e-06 PS=5.1e-07 $X=26925 $Y=9330 $D=0
M223 BL<3> WL<32> VSS VSS N_18 L=1.8e-07 W=4.7e-07 AD=2.303e-13 AS=1.1985e-13 PD=1.45e-06 PS=5.1e-07 $X=26925 $Y=10865 $D=0
M224 195 WL<31> VSS VSS N_18 L=1.8e-07 W=4.7e-07 AD=2.303e-13 AS=1.1985e-13 PD=1.45e-06 PS=5.1e-07 $X=26925 $Y=12820 $D=0
M225 BL<3> WL<30> VSS VSS N_18 L=1.8e-07 W=4.7e-07 AD=2.303e-13 AS=1.1985e-13 PD=1.45e-06 PS=5.1e-07 $X=26925 $Y=14355 $D=0
M226 196 WL<29> VSS VSS N_18 L=1.8e-07 W=4.7e-07 AD=2.303e-13 AS=1.1985e-13 PD=1.45e-06 PS=5.1e-07 $X=26925 $Y=15890 $D=0
M227 BL<3> WL<28> VSS VSS N_18 L=1.8e-07 W=4.7e-07 AD=2.303e-13 AS=1.1985e-13 PD=1.45e-06 PS=5.1e-07 $X=26925 $Y=17425 $D=0
M228 197 WL<27> VSS VSS N_18 L=1.8e-07 W=4.7e-07 AD=2.303e-13 AS=1.1985e-13 PD=1.45e-06 PS=5.1e-07 $X=26925 $Y=18960 $D=0
M229 BL<3> WL<26> VSS VSS N_18 L=1.8e-07 W=4.7e-07 AD=2.303e-13 AS=1.1985e-13 PD=1.45e-06 PS=5.1e-07 $X=26925 $Y=20495 $D=0
M230 198 WL<25> VSS VSS N_18 L=1.8e-07 W=4.7e-07 AD=2.303e-13 AS=1.1985e-13 PD=1.45e-06 PS=5.1e-07 $X=26925 $Y=22030 $D=0
M231 BL<3> WL<24> VSS VSS N_18 L=1.8e-07 W=4.7e-07 AD=2.303e-13 AS=1.1985e-13 PD=1.45e-06 PS=5.1e-07 $X=26925 $Y=23565 $D=0
M232 199 WL<23> VSS VSS N_18 L=1.8e-07 W=4.7e-07 AD=2.303e-13 AS=1.1985e-13 PD=1.45e-06 PS=5.1e-07 $X=26925 $Y=25100 $D=0
M233 BL<3> WL<22> VSS VSS N_18 L=1.8e-07 W=4.7e-07 AD=2.303e-13 AS=1.1985e-13 PD=1.45e-06 PS=5.1e-07 $X=26925 $Y=26635 $D=0
M234 200 WL<21> VSS VSS N_18 L=1.8e-07 W=4.7e-07 AD=2.303e-13 AS=1.1985e-13 PD=1.45e-06 PS=5.1e-07 $X=26925 $Y=28170 $D=0
M235 BL<3> WL<20> VSS VSS N_18 L=1.8e-07 W=4.7e-07 AD=2.303e-13 AS=1.1985e-13 PD=1.45e-06 PS=5.1e-07 $X=26925 $Y=29705 $D=0
M236 201 WL<19> VSS VSS N_18 L=1.8e-07 W=4.7e-07 AD=2.303e-13 AS=1.1985e-13 PD=1.45e-06 PS=5.1e-07 $X=26925 $Y=31240 $D=0
M237 BL<3> WL<18> VSS VSS N_18 L=1.8e-07 W=4.7e-07 AD=2.303e-13 AS=1.1985e-13 PD=1.45e-06 PS=5.1e-07 $X=26925 $Y=32775 $D=0