* File: hw2_part2_2.pex.spi.pex
* Created: Fri Nov 12 23:01:13 2021
* Program "Calibre xRC"
* Version "v2021.1_33.19"
* Nominal Temperature: 27C
* Circuit Temperature: 27C
* 
.subckt PM_HW2_PART2_2%NET0210 1 2 3 4 135 136 142 143 149 150 156 157 163 164
+ 170 171 177 178 184 185 191 192 198 199 205 206 212 213 219 226 227 233 234
+ 240 241 247 248 254 255 261 262 268 269 275 276 282 283 289 290 296 297 303
+ 304 310 321 325 329 336 340 344 351 355 359 366
c0 489 0 0.177802f
c1 486 0 0.0932977f
c2 400 0 0.0307585f
c3 393 0 0.127559f
c4 391 0 0.116112f
c5 387 0 0.127559f
c6 385 0 0.112972f
c7 381 0 0.34425f
c8 379 0 0.713913f
c9 371 0 0.0938323f
c10 366 0 0.354755f
c11 359 0 0.351904f
c12 355 0 0.214707f
c13 351 0 0.251532f
c14 344 0 0.209893f
c15 340 0 0.179858f
c16 336 0 0.2096f
c17 329 0 0.208733f
c18 325 0 0.193708f
c19 321 0 0.221537f
c20 313 0 0.274387f
c21 307 0 0.537103f
c22 300 0 0.537103f
c23 293 0 0.537103f
c24 286 0 0.537103f
c25 279 0 0.537103f
c26 272 0 0.537103f
c27 265 0 0.537103f
c28 258 0 0.537103f
c29 251 0 0.537103f
c30 244 0 0.537103f
c31 237 0 0.537103f
c32 230 0 0.542852f
c33 222 0 0.289979f
c34 216 0 0.556239f
c35 209 0 0.556239f
c36 202 0 0.556239f
c37 195 0 0.556239f
c38 188 0 0.556239f
c39 181 0 0.556239f
c40 174 0 0.556239f
c41 167 0 0.556239f
c42 160 0 0.556239f
c43 153 0 0.556239f
c44 146 0 0.556239f
c45 139 0 0.562109f
c46 134 0 0.0224732f
c47 133 0 0.0381869f
c48 129 0 0.0108157f
c49 127 0 0.00534721f
c50 125 0 0.0546555f
c51 123 0 0.0546555f
c52 121 0 0.0546555f
c53 119 0 0.0546555f
c54 117 0 0.0546555f
c55 115 0 0.0546555f
c56 113 0 0.0546555f
c57 111 0 0.0546555f
c58 109 0 0.0546555f
c59 107 0 0.0546555f
c60 105 0 0.0546555f
c61 103 0 0.0546555f
c62 101 0 0.0546555f
c63 99 0 0.0546555f
c64 97 0 0.0546555f
c65 95 0 0.0546555f
c66 93 0 0.0546555f
c67 91 0 0.0546555f
c68 89 0 0.0546555f
c69 87 0 0.0546555f
c70 85 0 0.0546555f
c71 83 0 0.0546555f
c72 77 0 0.0227979f
c73 75 0 0.8148f
c74 74 0 0.102966f
c75 73 0 0.182343f
c76 70 0 0.127604f
c77 69 0 0.118439f
c78 66 0 0.184802f
c79 64 0 0.185971f
c80 62 0 0.206211f
c81 60 0 0.206749f
c82 58 0 0.206211f
c83 56 0 0.206749f
c84 54 0 0.206211f
c85 52 0 0.206749f
c86 50 0 0.206211f
c87 48 0 0.206749f
c88 46 0 0.206211f
c89 44 0 0.206749f
c90 42 0 0.206211f
c91 40 0 0.206749f
c92 38 0 0.206211f
c93 36 0 0.206749f
c94 34 0 0.206211f
c95 32 0 0.206749f
c96 30 0 0.206211f
c97 28 0 0.206749f
c98 26 0 0.206211f
c99 24 0 0.206749f
c100 23 0 0.0753452f
c101 22 0 0.205373f
c102 21 0 0.0753452f
c103 20 0 0.205911f
c104 17 0 0.0235786f
c105 15 0 0.481997f
c106 13 0 0.0235054f
c107 12 0 1.8844f
c108 11 0 0.478946f
c109 4 0 0.202123f
c110 3 0 0.201394f
c111 2 0 0.180154f
c112 1 0 0.178991f
r113 397 398 8
r114 391 489 0.045481
r115 390 393 5.90526
r116 390 391 13.2552
r117 385 486 0.045481
r118 384 387 5.90526
r119 384 385 13.2552
r120 380 381 10.8947
r121 378 380 4.01053
r122 378 379 4.4184
r123 376 378 6.88421
r124 375 376 10.8947
r125 374 379 0.21
r126 374 397 0.14
r127 373 375 9.22105
r128 373 374 4.4184
r129 371 373 1.67368
r130 368 393 5.62351
r131 364 393 5.62351
r132 364 366 134.75
r133 361 387 5.62351
r134 357 387 5.62351
r135 357 359 134.75
r136 353 381 5.62351
r137 353 355 92
r138 349 381 5.62351
r139 349 351 109.1
r140 346 380 5.62351
r141 342 380 5.62351
r142 342 344 109.1
r143 338 376 5.62351
r144 338 340 92
r145 334 376 5.62351
r146 334 336 109.1
r147 331 375 5.62351
r148 327 375 5.62351
r149 327 329 109.1
r150 323 371 5.62351
r151 323 325 92
r152 319 371 5.62351
r153 319 321 109.1
r154 313 315 0.2
r155 312 315 8.16635
r156 312 313 5.44423
r157 310 312 0.9216
r158 307 309 0.2
r159 306 309 8.16635
r160 306 307 5.44423
r161 304 306 0.9216
r162 303 306 0.9144
r163 300 302 0.2
r164 299 302 8.16635
r165 299 300 5.44423
r166 297 299 0.9216
r167 296 299 0.9144
r168 293 295 0.2
r169 292 295 8.16635
r170 292 293 5.44423
r171 290 292 0.9216
r172 289 292 0.9144
r173 286 288 0.2
r174 285 288 8.16635
r175 285 286 5.44423
r176 283 285 0.9216
r177 282 285 0.9144
r178 279 281 0.2
r179 278 281 8.16635
r180 278 279 5.44423
r181 276 278 0.9216
r182 275 278 0.9144
r183 272 274 0.2
r184 271 274 8.16635
r185 271 272 5.44423
r186 269 271 0.9216
r187 268 271 0.9144
r188 265 267 0.2
r189 264 267 8.16635
r190 264 265 5.44423
r191 262 264 0.9216
r192 261 264 0.9144
r193 258 260 0.2
r194 257 260 8.16635
r195 257 258 5.44423
r196 255 257 0.9216
r197 254 257 0.9144
r198 251 253 0.2
r199 250 253 8.16635
r200 250 251 5.44423
r201 248 250 0.9216
r202 247 250 0.9144
r203 244 246 0.2
r204 243 246 8.16635
r205 243 244 5.44423
r206 241 243 0.9216
r207 240 243 0.9144
r208 237 239 0.2
r209 236 239 8.16635
r210 236 237 5.44423
r211 234 236 0.9216
r212 233 236 0.9144
r213 230 232 0.2
r214 229 232 8.16635
r215 229 230 5.44423
r216 227 229 0.9216
r217 226 229 0.9144
r218 222 224 0.2
r219 221 224 8.16635
r220 221 222 5.44423
r221 219 221 0.9216
r222 216 218 0.2
r223 215 218 8.16635
r224 215 216 5.44423
r225 213 215 0.9216
r226 212 215 0.9144
r227 209 211 0.2
r228 208 211 8.16635
r229 208 209 5.44423
r230 206 208 0.9216
r231 205 208 0.9144
r232 202 204 0.2
r233 201 204 8.16635
r234 201 202 5.44423
r235 199 201 0.9216
r236 198 201 0.9144
r237 195 197 0.2
r238 194 197 8.16635
r239 194 195 5.44423
r240 192 194 0.9216
r241 191 194 0.9144
r242 188 190 0.2
r243 187 190 8.16635
r244 187 188 5.44423
r245 185 187 0.9216
r246 184 187 0.9144
r247 181 183 0.2
r248 180 183 8.16635
r249 180 181 5.44423
r250 178 180 0.9216
r251 177 180 0.9144
r252 174 176 0.2
r253 173 176 8.16635
r254 173 174 5.44423
r255 171 173 0.9216
r256 170 173 0.9144
r257 167 169 0.2
r258 166 169 8.16635
r259 166 167 5.44423
r260 164 166 0.9216
r261 163 166 0.9144
r262 160 162 0.2
r263 159 162 8.16635
r264 159 160 5.44423
r265 157 159 0.9216
r266 156 159 0.9144
r267 153 155 0.2
r268 152 155 8.16635
r269 152 153 5.44423
r270 150 152 0.9216
r271 149 152 0.9144
r272 146 148 0.2
r273 145 148 8.16635
r274 145 146 5.44423
r275 143 145 0.9216
r276 142 145 0.9144
r277 139 141 0.2
r278 138 141 8.16635
r279 138 139 5.44423
r280 136 138 0.9216
r281 135 138 0.9144
r282 133 400 0.0422324
r283 132 133 8
r284 128 222 0.2264
r285 128 129 0.0296412
r286 126 315 0.2212
r287 126 127 0.0175
r288 124 216 0.2264
r289 124 125 0.00770322
r290 122 309 0.2212
r291 122 123 0.00770322
r292 120 209 0.2264
r293 120 121 0.00770322
r294 118 302 0.2212
r295 118 119 0.00770322
r296 116 202 0.2264
r297 116 117 0.00770322
r298 114 295 0.2212
r299 114 115 0.00770322
r300 112 195 0.2264
r301 112 113 0.00770322
r302 110 288 0.2212
r303 110 111 0.00770322
r304 108 188 0.2264
r305 108 109 0.00770322
r306 106 281 0.2212
r307 106 107 0.00770322
r308 104 181 0.2264
r309 104 105 0.00770322
r310 102 274 0.2212
r311 102 103 0.00770322
r312 100 174 0.2264
r313 100 101 0.00770322
r314 98 267 0.2212
r315 98 99 0.00770322
r316 96 167 0.2264
r317 96 97 0.00770322
r318 94 260 0.2212
r319 94 95 0.00770322
r320 92 160 0.2264
r321 92 93 0.00770322
r322 90 253 0.2212
r323 90 91 0.00770322
r324 88 153 0.2264
r325 88 89 0.00770322
r326 86 246 0.2212
r327 86 87 0.00770322
r328 84 146 0.2264
r329 84 85 0.00770322
r330 82 239 0.2212
r331 82 83 0.00770322
r332 81 139 0.2264
r333 80 232 0.2212
r334 79 132 0.0522953
r335 79 486 0.237
r336 77 489 0.402
r337 75 134 0.0296412
r338 74 132 0.0457081
r339 74 75 1.819
r340 73 77 0.040051
r341 72 134 0.0296412
r342 72 73 0.526
r343 71 127 0.0175
r344 70 134 0.00770322
r345 70 71 0.324
r346 69 129 0.0296412
r347 68 127 0.0175
r348 68 69 0.2046
r349 67 125 0.0296412
r350 66 129 0.00770322
r351 66 67 0.205
r352 65 123 0.0296412
r353 64 127 0.0175
r354 64 65 0.205
r355 63 121 0.0296412
r356 62 125 0.0296412
r357 62 63 0.206
r358 61 119 0.0296412
r359 60 123 0.0296412
r360 60 61 0.206
r361 59 117 0.0296412
r362 58 121 0.0296412
r363 58 59 0.206
r364 57 115 0.0296412
r365 56 119 0.0296412
r366 56 57 0.206
r367 55 113 0.0296412
r368 54 117 0.0296412
r369 54 55 0.206
r370 53 111 0.0296412
r371 52 115 0.0296412
r372 52 53 0.206
r373 51 109 0.0296412
r374 50 113 0.0296412
r375 50 51 0.206
r376 49 107 0.0296412
r377 48 111 0.0296412
r378 48 49 0.206
r379 47 105 0.0296412
r380 46 109 0.0296412
r381 46 47 0.206
r382 45 103 0.0296412
r383 44 107 0.0296412
r384 44 45 0.206
r385 43 101 0.0296412
r386 42 105 0.0296412
r387 42 43 0.206
r388 41 99 0.0296412
r389 40 103 0.0296412
r390 40 41 0.206
r391 39 97 0.0296412
r392 38 101 0.0296412
r393 38 39 0.206
r394 37 95 0.0296412
r395 36 99 0.0296412
r396 36 37 0.206
r397 35 93 0.0296412
r398 34 97 0.0296412
r399 34 35 0.206
r400 33 91 0.0296412
r401 32 95 0.0296412
r402 32 33 0.206
r403 31 89 0.0296412
r404 30 93 0.0296412
r405 30 31 0.206
r406 29 87 0.0296412
r407 28 91 0.0296412
r408 28 29 0.206
r409 27 85 0.0296412
r410 26 89 0.0296412
r411 26 27 0.206
r412 25 83 0.0296412
r413 24 87 0.0296412
r414 24 25 0.206
r415 23 81 0.039111
r416 22 85 0.0296412
r417 22 23 0.206
r418 21 80 0.039111
r419 20 83 0.0296412
r420 20 21 0.206
r421 17 400 0.0854286
r422 15 17 0.0363174
r423 14 15 1.28514
r424 12 14 0.0363174
r425 12 13 5.11271
r426 11 398 0.103389
r427 10 13 0.0363174
r428 10 11 1.10779
r429 4 368 80.5
r430 3 361 80.5
r431 2 346 92
r432 1 331 92
.ends

.subckt PM_HW2_PART2_2%VDD 3 4 8 11 12 16 19 20 24 27 28 32 36 41 49 54 62 67 75
+ 80 88 93 487 492 496 501 505 510 517 521 522 528 532 533 539 546 547 553 554
+ 560 561 567 568 574 575 581 582 588 589 595 596 602 603 609 610 616 617 623
+ 624 630 631 637 638 644 645 651 652 658 659 665 666 672 673 679 680 686 687
+ 693 694 700 705 709 713 720 721 727 728 734 739 740 746 750 751 757 761 762
+ 768 775 776 782 783 789 790 796 797 803 804 810 811 817 818 824 825 831 832
+ 838 839 845 846 852 853 859 860 866 867 873 874 880 881 887 888 894 895 901
+ 902 1279
c0 1260 0 0.0115203f
c1 1241 0 0.0898701f
c2 1237 0 0.0115203f
c3 1231 0 0.0207737f
c4 1198 0 0.0111766f
c5 1192 0 0.0110047f
c6 1186 0 0.0320888f
c7 1183 0 0.765777f
c8 1180 0 0.0335559f
c9 1117 0 0.0335559f
c10 1046 0 0.00392696f
c11 1038 0 0.0276457f
c12 1034 0 0.229818f
c13 905 0 0.554991f
c14 898 0 0.550928f
c15 891 0 0.550928f
c16 884 0 0.550928f
c17 877 0 0.550928f
c18 870 0 0.550928f
c19 863 0 0.554991f
c20 856 0 0.550928f
c21 849 0 0.550928f
c22 842 0 0.550928f
c23 835 0 0.550928f
c24 828 0 0.550928f
c25 821 0 0.550928f
c26 814 0 0.550928f
c27 807 0 0.550928f
c28 800 0 0.550928f
c29 793 0 0.550928f
c30 786 0 0.550928f
c31 779 0 0.550928f
c32 771 0 0.36109f
c33 765 0 0.550928f
c34 760 0 0.425104f
c35 754 0 0.550928f
c36 749 0 0.424393f
c37 743 0 0.550928f
c38 737 0 0.277351f
c39 731 0 0.550928f
c40 724 0 0.550928f
c41 716 0 0.36109f
c42 712 0 0.425104f
c43 708 0 0.424393f
c44 703 0 0.277351f
c45 697 0 0.554991f
c46 690 0 0.550928f
c47 683 0 0.550928f
c48 676 0 0.555706f
c49 669 0 0.550928f
c50 662 0 0.551643f
c51 655 0 0.550928f
c52 648 0 0.551643f
c53 641 0 0.550928f
c54 634 0 0.551643f
c55 627 0 0.550928f
c56 620 0 0.551643f
c57 613 0 0.550928f
c58 606 0 0.551643f
c59 599 0 0.550928f
c60 592 0 0.551643f
c61 585 0 0.550928f
c62 578 0 0.551643f
c63 571 0 0.550928f
c64 564 0 0.551643f
c65 557 0 0.550928f
c66 550 0 0.551643f
c67 542 0 0.36109f
c68 536 0 0.551643f
c69 531 0 0.425104f
c70 525 0 0.551643f
c71 520 0 0.424393f
c72 513 0 0.36109f
c73 508 0 0.277351f
c74 504 0 0.425104f
c75 499 0 0.318163f
c76 495 0 0.424393f
c77 490 0 0.228328f
c78 473 0 0.0063307f
c79 471 0 0.0063307f
c80 469 0 0.0063307f
c81 467 0 0.0063307f
c82 465 0 0.0063307f
c83 462 0 0.0063307f
c84 460 0 0.0063307f
c85 458 0 0.0063307f
c86 456 0 0.0063307f
c87 454 0 0.0063307f
c88 452 0 0.0063307f
c89 450 0 0.0063307f
c90 448 0 0.0063307f
c91 446 0 0.0063307f
c92 444 0 0.0063307f
c93 442 0 0.0063307f
c94 440 0 0.0063307f
c95 438 0 0.0113287f
c96 436 0 0.0063307f
c97 433 0 0.0063307f
c98 431 0 0.0063307f
c99 429 0 0.0157336f
c100 421 0 0.0063307f
c101 419 0 0.0063307f
c102 417 0 0.00741758f
c103 416 0 0.0110047f
c104 415 0 0.0113287f
c105 411 0 0.0484131f
c106 409 0 0.0157336f
c107 401 0 0.0152715f
c108 399 0 0.00392696f
c109 398 0 0.0110047f
c110 397 0 8.72657e-19
c111 394 0 0.167269f
c112 393 0 0.0698944f
c113 392 0 0.0519873f
c114 390 0 0.0385039f
c115 387 0 0.0100108f
c116 386 0 3.43714e-19
c117 384 0 0.00395272f
c118 381 0 0.0063307f
c119 379 0 0.0063307f
c120 376 0 0.0063307f
c121 374 0 0.0063307f
c122 372 0 0.0063307f
c123 370 0 0.0063307f
c124 368 0 0.0063307f
c125 366 0 0.0063307f
c126 364 0 0.0063307f
c127 362 0 0.0063307f
c128 360 0 0.0063307f
c129 358 0 0.0063307f
c130 356 0 0.0063307f
c131 354 0 0.0063307f
c132 352 0 0.0063307f
c133 350 0 0.0063307f
c134 348 0 0.0063307f
c135 346 0 0.0063307f
c136 344 0 0.0063307f
c137 342 0 0.0063307f
c138 339 0 0.0115203f
c139 337 0 0.0113287f
c140 335 0 0.0063307f
c141 332 0 0.0063307f
c142 330 0 0.00425826f
c143 329 0 0.0369193f
c144 327 0 0.0113287f
c145 317 0 0.27691f
c146 308 0 0.0110047f
c147 306 0 0.0276029f
c148 304 0 0.102339f
c149 302 0 0.0836766f
c150 300 0 0.0836766f
c151 298 0 0.0836766f
c152 296 0 0.0836766f
c153 294 0 0.0836766f
c154 292 0 0.102339f
c155 290 0 0.0836766f
c156 288 0 0.0836766f
c157 286 0 0.0836766f
c158 284 0 0.0836766f
c159 282 0 0.0836766f
c160 280 0 0.0836766f
c161 278 0 0.0836766f
c162 276 0 0.0836766f
c163 274 0 0.0836766f
c164 272 0 0.0836766f
c165 270 0 0.0836766f
c166 269 0 0.0201895f
c167 266 0 0.0836766f
c168 264 0 0.0836766f
c169 263 0 0.108842f
c170 262 0 0.101341f
c171 260 0 0.0836766f
c172 259 0 0.022615f
c173 256 0 0.0836766f
c174 254 0 0.0836766f
c175 252 0 0.185242f
c176 247 0 0.0836766f
c177 246 0 0.0201895f
c178 241 0 0.108842f
c179 240 0 0.101341f
c180 236 0 0.022615f
c181 230 0 0.185242f
c182 225 0 0.147964f
c183 218 0 0.111817f
c184 217 0 0.0416409f
c185 211 0 0.0276029f
c186 210 0 0.129181f
c187 209 0 0.111109f
c188 206 0 0.0806607f
c189 204 0 0.102339f
c190 202 0 0.0836766f
c191 200 0 0.0836766f
c192 198 0 0.109375f
c193 196 0 0.0836766f
c194 194 0 0.0836766f
c195 192 0 0.0836766f
c196 190 0 0.0836766f
c197 188 0 0.0836766f
c198 186 0 0.0836766f
c199 184 0 0.0836766f
c200 182 0 0.0836766f
c201 180 0 0.0836766f
c202 178 0 0.0836766f
c203 176 0 0.0836766f
c204 174 0 0.0836766f
c205 172 0 0.0836766f
c206 170 0 0.0836766f
c207 168 0 0.0836766f
c208 166 0 0.0836766f
c209 164 0 0.0836766f
c210 163 0 0.0201895f
c211 160 0 0.0836766f
c212 158 0 0.0836766f
c213 157 0 0.108842f
c214 156 0 0.101341f
c215 154 0 0.0836766f
c216 153 0 0.0201895f
c217 151 0 0.0201653f
c218 149 0 0.113195f
c219 148 0 0.101341f
c220 147 0 0.0227921f
c221 139 0 0.0279972f
c222 138 0 0.0555212f
c223 137 0 0.914853f
c224 133 0 0.036648f
c225 96 0 0.320951f
c226 91 0 0.317743f
c227 83 0 0.317743f
c228 78 0 0.321739f
c229 70 0 0.320809f
c230 65 0 0.279336f
c231 57 0 0.31959f
c232 52 0 0.332084f
c233 44 0 0.317743f
c234 39 0 0.254363f
r235 1188 1279 0.0296412
r236 1179 1180 5.44423
r237 1177 1180 0.288
r238 1176 1179 25.92
r239 1176 1177 5.44423
r240 1174 1177 0.288
r241 1173 1176 25.92
r242 1173 1174 5.44423
r243 1171 1174 0.288
r244 1170 1173 25.92
r245 1170 1171 5.44423
r246 1168 1171 0.288
r247 1167 1170 25.92
r248 1167 1168 5.44423
r249 1165 1168 0.288
r250 1164 1167 25.92
r251 1164 1165 5.44423
r252 1162 1165 0.288
r253 1161 1164 25.92
r254 1161 1162 5.44423
r255 1158 1162 0.288
r256 1155 1158 0.288
r257 1154 1155 5.44423
r258 1152 1155 0.288
r259 1151 1154 25.92
r260 1151 1152 5.44423
r261 1149 1152 0.288
r262 1148 1151 25.92
r263 1148 1149 5.44423
r264 1146 1149 0.2878
r265 1146 1264 0.1502
r266 1145 1148 25.902
r267 1145 1146 5.44423
r268 1143 1260 0.0296412
r269 1143 1264 0.0296412
r270 1142 1145 17.28
r271 1142 1143 16.3327
r272 1140 1260 0.1638
r273 1139 1142 17.28
r274 1139 1140 8.16635
r275 1137 1140 0.192
r276 1136 1139 17.28
r277 1136 1137 5.44423
r278 1133 1137 0.288
r279 1132 1136 25.92
r280 1132 1133 5.44423
r281 1128 1129 16.3327
r282 1125 1129 0.192
r283 1125 1243 0.1582
r284 1121 1241 0.0296412
r285 1121 1243 0.0296412
r286 1120 1121 16.3327
r287 1116 1117 5.44423
r288 1114 1117 0.288
r289 1113 1116 25.92
r290 1113 1114 5.44423
r291 1111 1114 0.288
r292 1110 1113 25.92
r293 1110 1111 5.44423
r294 1108 1111 0.288
r295 1107 1110 25.92
r296 1107 1108 5.44423
r297 1105 1108 0.288
r298 1104 1107 25.92
r299 1104 1105 5.44423
r300 1102 1105 0.2878
r301 1101 1104 25.902
r302 1101 1102 5.44423
r303 1099 1102 0.288
r304 1098 1101 25.92
r305 1098 1099 5.44423
r306 1095 1099 0.288
r307 1092 1095 0.288
r308 1091 1092 5.44423
r309 1089 1092 0.288
r310 1088 1091 25.92
r311 1088 1089 5.44423
r312 1086 1089 0.288
r313 1085 1088 25.92
r314 1085 1086 5.44423
r315 1083 1086 0.288
r316 1083 1246 0.1502
r317 1082 1085 25.92
r318 1082 1083 5.44423
r319 1080 1237 0.0296412
r320 1080 1246 0.0296412
r321 1079 1082 17.28
r322 1079 1080 16.3327
r323 1077 1237 0.1638
r324 1076 1079 17.28
r325 1076 1077 8.16635
r326 1074 1077 0.192
r327 1073 1076 17.28
r328 1073 1074 5.44423
r329 1070 1074 0.288
r330 1069 1073 25.92
r331 1069 1070 5.44423
r332 1066 1241 0.3558
r333 1065 1066 8.16635
r334 1059 1060 5.44423
r335 1055 1056 8.16635
r336 1050 1056 0.192
r337 1049 1050 5.44423
r338 1046 1231 0.0296412
r339 1045 1046 16.3327
r340 1042 1231 0.1878
r341 1042 1232 0.1632
r342 1038 1232 0.00770322
r343 1037 1038 16.3327
r344 1033 1034 16.3327
r345 1031 1034 0.192
r346 1030 1033 17.28
r347 1030 1031 5.44423
r348 1028 1031 0.288
r349 1027 1030 25.92
r350 1027 1028 5.44423
r351 1025 1028 0.288
r352 1024 1027 25.92
r353 1024 1025 5.44423
r354 1022 1025 0.288
r355 1021 1024 25.92
r356 1021 1022 5.44423
r357 1019 1022 0.288
r358 1018 1021 25.92
r359 1018 1019 5.44423
r360 1016 1019 0.288
r361 1015 1018 25.92
r362 1015 1016 5.44423
r363 1013 1016 0.288
r364 1012 1015 25.92
r365 1012 1013 5.44423
r366 1008 1013 0.288
r367 1007 1008 5.44423
r368 1005 1008 0.288
r369 1004 1007 25.92
r370 1004 1005 5.44423
r371 1002 1005 0.288
r372 1001 1004 25.92
r373 1001 1002 5.44423
r374 999 1002 0.288
r375 998 1001 25.92
r376 998 999 5.44423
r377 995 998 25.92
r378 995 996 5.44423
r379 993 996 0.288
r380 992 995 25.92
r381 992 993 5.44423
r382 990 993 0.288
r383 989 992 25.92
r384 989 990 5.44423
r385 985 989 25.92
r386 985 986 8.16635
r387 981 982 5.44423
r388 978 981 25.92
r389 978 979 5.44423
r390 976 979 0.288
r391 975 978 25.92
r392 975 976 5.44423
r393 973 976 0.288
r394 972 975 25.92
r395 972 973 5.44423
r396 970 973 0.288
r397 969 972 25.92
r398 969 970 5.44423
r399 967 970 0.288
r400 966 969 25.92
r401 966 967 5.44423
r402 964 967 0.288
r403 963 966 25.92
r404 963 964 5.44423
r405 961 964 0.288
r406 960 963 25.92
r407 960 961 5.44423
r408 958 961 0.288
r409 957 960 25.92
r410 957 958 5.44423
r411 955 958 0.288
r412 954 957 25.92
r413 954 955 5.44423
r414 950 955 0.288
r415 949 950 5.44423
r416 947 950 0.288
r417 946 949 25.92
r418 946 947 5.44423
r419 943 946 25.92
r420 943 944 8.16635
r421 941 944 0.192
r422 940 943 17.28
r423 940 941 5.44423
r424 938 941 0.288
r425 938 1202 0.1642
r426 937 940 25.92
r427 937 938 5.44423
r428 935 1198 0.0296412
r429 935 1202 0.0296412
r430 934 937 17.28
r431 934 935 16.3327
r432 932 1198 0.1498
r433 931 934 17.28
r434 931 932 8.16635
r435 929 932 0.192
r436 929 1199 0.1582
r437 928 931 17.28
r438 928 929 5.44423
r439 926 1280 0.00770322
r440 926 1192 0.0296412
r441 926 1199 0.0296412
r442 925 928 17.28
r443 925 926 16.3327
r444 923 1192 0.0598
r445 922 925 8.64
r446 922 923 16.3327
r447 920 923 0.192
r448 919 922 17.28
r449 919 920 5.44423
r450 916 919 17.28
r451 916 917 16.3327
r452 914 917 0.192
r453 914 1188 0.1582
r454 913 916 17.28
r455 913 914 5.44423
r456 909 913 17.28
r457 909 1279 16.3327
r458 905 907 0.2
r459 904 907 8.16635
r460 904 905 5.44423
r461 902 904 0.918
r462 901 904 0.918
r463 898 900 0.2
r464 897 900 8.16635
r465 897 898 5.44423
r466 895 897 0.918
r467 894 897 0.918
r468 891 893 0.2
r469 890 893 8.16635
r470 890 891 5.44423
r471 888 890 0.918
r472 887 890 0.918
r473 884 886 0.2
r474 883 886 8.16635
r475 883 884 5.44423
r476 881 883 0.918
r477 880 883 0.918
r478 877 879 0.2
r479 876 879 8.16635
r480 876 877 5.44423
r481 874 876 0.918
r482 873 876 0.918
r483 870 872 0.2
r484 869 872 8.16635
r485 869 870 5.44423
r486 867 869 0.918
r487 866 869 0.918
r488 863 865 0.2
r489 862 865 8.16635
r490 862 863 5.44423
r491 860 862 0.918
r492 859 862 0.918
r493 856 858 0.2
r494 855 858 8.16635
r495 855 856 5.44423
r496 853 855 0.918
r497 852 855 0.918
r498 849 851 0.2
r499 848 851 8.16635
r500 848 849 5.44423
r501 846 848 0.918
r502 845 848 0.918
r503 842 844 0.2
r504 841 844 8.16635
r505 841 842 5.44423
r506 839 841 0.918
r507 838 841 0.918
r508 835 837 0.2
r509 834 837 8.16635
r510 834 835 5.44423
r511 832 834 0.918
r512 831 834 0.918
r513 828 830 0.2
r514 827 830 8.16635
r515 827 828 5.44423
r516 825 827 0.918
r517 824 827 0.918
r518 821 823 0.2
r519 820 823 8.16635
r520 820 821 5.44423
r521 818 820 0.918
r522 817 820 0.918
r523 814 816 0.2
r524 813 816 8.16635
r525 813 814 5.44423
r526 811 813 0.918
r527 810 813 0.918
r528 807 809 0.2
r529 806 809 8.16635
r530 806 807 5.44423
r531 804 806 0.918
r532 803 806 0.918
r533 800 802 0.2
r534 799 802 8.16635
r535 799 800 5.44423
r536 797 799 0.918
r537 796 799 0.918
r538 793 795 0.2
r539 792 795 8.16635
r540 792 793 5.44423
r541 790 792 0.9216
r542 789 792 0.9144
r543 786 788 0.2
r544 785 788 8.16635
r545 785 786 5.44423
r546 783 785 0.9216
r547 782 785 0.9144
r548 779 781 0.2
r549 778 781 8.16635
r550 778 779 5.44423
r551 776 778 0.9216
r552 775 778 0.9144
r553 771 774 0.2
r554 770 774 8.16635
r555 770 771 5.44423
r556 768 770 0.9144
r557 765 767 0.2
r558 764 767 8.16635
r559 764 765 5.44423
r560 762 764 0.9216
r561 761 764 0.9144
r562 759 760 5.44423
r563 757 759 1.23568
r564 754 756 0.2
r565 753 756 8.16635
r566 753 754 5.44423
r567 751 753 0.9216
r568 750 753 0.9144
r569 748 749 5.44423
r570 746 748 1.23568
r571 743 745 0.2
r572 742 745 8.16635
r573 742 743 5.44423
r574 740 742 0.9216
r575 739 742 0.9144
r576 736 737 5.44423
r577 734 736 1.23568
r578 731 733 0.2
r579 730 733 8.16635
r580 730 731 5.44423
r581 728 730 0.9216
r582 727 730 0.9144
r583 724 726 0.2
r584 723 726 8.16635
r585 723 724 5.44423
r586 721 723 0.9216
r587 720 723 0.9144
r588 716 719 0.2
r589 715 719 8.16635
r590 715 716 5.44423
r591 713 715 0.9144
r592 711 712 5.44423
r593 709 711 1.23568
r594 707 708 5.44423
r595 705 707 1.23568
r596 702 703 5.44423
r597 700 702 1.23568
r598 697 699 0.2
r599 696 699 8.16635
r600 696 697 5.44423
r601 694 696 0.9216
r602 693 696 0.9144
r603 690 692 0.2
r604 689 692 8.16635
r605 689 690 5.44423
r606 687 689 0.9216
r607 686 689 0.9144
r608 683 685 0.2
r609 682 685 8.16635
r610 682 683 5.44423
r611 680 682 0.9216
r612 679 682 0.9144
r613 676 678 0.2
r614 675 678 8.16635
r615 675 676 5.44423
r616 673 675 0.9216
r617 672 675 0.9144
r618 669 671 0.2
r619 668 671 8.16635
r620 668 669 5.44423
r621 666 668 0.9216
r622 665 668 0.9144
r623 662 664 0.2
r624 661 664 8.16635
r625 661 662 5.44423
r626 659 661 0.9216
r627 658 661 0.9144
r628 655 657 0.2
r629 654 657 8.16635
r630 654 655 5.44423
r631 652 654 0.9216
r632 651 654 0.9144
r633 648 650 0.2
r634 647 650 8.16635
r635 647 648 5.44423
r636 645 647 0.9216
r637 644 647 0.9144
r638 641 643 0.2
r639 640 643 8.16635
r640 640 641 5.44423
r641 638 640 0.9216
r642 637 640 0.9144
r643 634 636 0.2
r644 633 636 8.16635
r645 633 634 5.44423
r646 631 633 0.9216
r647 630 633 0.9144
r648 627 629 0.2
r649 626 629 8.16635
r650 626 627 5.44423
r651 624 626 0.9216
r652 623 626 0.9144
r653 620 622 0.2
r654 619 622 8.16635
r655 619 620 5.44423
r656 617 619 0.9216
r657 616 619 0.9144
r658 613 615 0.2
r659 612 615 8.16635
r660 612 613 5.44423
r661 610 612 0.9216
r662 609 612 0.9144
r663 606 608 0.2
r664 605 608 8.16635
r665 605 606 5.44423
r666 603 605 0.9216
r667 602 605 0.9144
r668 599 601 0.2
r669 598 601 8.16635
r670 598 599 5.44423
r671 596 598 0.9216
r672 595 598 0.9144
r673 592 594 0.2
r674 591 594 8.16635
r675 591 592 5.44423
r676 589 591 0.9216
r677 588 591 0.9144
r678 585 587 0.2
r679 584 587 8.16635
r680 584 585 5.44423
r681 582 584 0.9216
r682 581 584 0.9144
r683 578 580 0.2
r684 577 580 8.16635
r685 577 578 5.44423
r686 575 577 0.9216
r687 574 577 0.9144
r688 571 573 0.2
r689 570 573 8.16635
r690 570 571 5.44423
r691 568 570 0.9216
r692 567 570 0.9144
r693 564 566 0.2
r694 563 566 8.16635
r695 563 564 5.44423
r696 561 563 0.9216
r697 560 563 0.9144
r698 557 559 0.2
r699 556 559 8.16635
r700 556 557 5.44423
r701 554 556 0.9216
r702 553 556 0.9144
r703 550 552 0.2
r704 549 552 8.16635
r705 549 550 5.44423
r706 547 549 0.9216
r707 546 549 0.9144
r708 542 545 0.2
r709 541 545 8.16635
r710 541 542 5.44423
r711 539 541 0.9144
r712 536 538 0.2
r713 535 538 8.16635
r714 535 536 5.44423
r715 533 535 0.9216
r716 532 535 0.9144
r717 530 531 5.44423
r718 528 530 1.23568
r719 525 527 0.2
r720 524 527 8.16635
r721 524 525 5.44423
r722 522 524 0.9216
r723 521 524 0.9144
r724 519 520 5.44423
r725 517 519 1.23568
r726 513 516 0.2
r727 512 516 8.16635
r728 512 513 5.44423
r729 510 512 0.9144
r730 507 508 5.44423
r731 505 507 1.23568
r732 503 504 5.44423
r733 501 503 1.23568
r734 499 1280 0.387
r735 498 499 5.44423
r736 496 498 1.23568
r737 494 495 5.44423
r738 492 494 1.23568
r739 489 490 5.44423
r740 487 489 1.23568
r741 474 907 0.2254
r742 472 900 0.2254
r743 472 473 0.00770322
r744 470 893 0.2254
r745 470 471 0.00770322
r746 468 886 0.2254
r747 468 469 0.00770322
r748 466 879 0.2254
r749 466 467 0.00770322
r750 464 872 0.2254
r751 464 465 0.00770322
r752 463 865 0.2256
r753 461 858 0.2254
r754 461 462 0.00770322
r755 459 851 0.2256
r756 459 460 0.00770322
r757 457 844 0.2254
r758 457 458 0.00770322
r759 455 837 0.2256
r760 455 456 0.00770322
r761 453 830 0.2254
r762 453 454 0.00770322
r763 451 823 0.2256
r764 451 452 0.00770322
r765 449 816 0.2254
r766 449 450 0.00770322
r767 447 809 0.2256
r768 447 448 0.00770322
r769 445 802 0.2254
r770 445 446 0.00770322
r771 443 795 0.2256
r772 443 444 0.00770322
r773 441 788 0.2254
r774 441 442 0.00770322
r775 439 781 0.2256
r776 439 440 0.00770322
r777 437 774 0.2254
r778 437 438 0.0296412
r779 435 767 0.2256
r780 435 436 0.00770322
r781 434 760 0.2438
r782 432 756 0.2256
r783 432 433 0.00770322
r784 430 745 0.2256
r785 430 431 0.00770322
r786 428 1133 0.1322
r787 428 429 0.0296412
r788 427 749 0.2438
r789 426 427 0.00411102
r790 425 426 0.138
r791 423 737 0.2438
r792 422 425 0.138
r793 422 423 0.00411102
r794 420 733 0.2256
r795 420 421 0.00770322
r796 418 726 0.2256
r797 418 419 0.00770322
r798 416 1129 0.0118
r799 416 417 0.0296412
r800 414 719 0.2256
r801 414 415 0.0296412
r802 413 712 0.244
r803 411 1060 0.1158
r804 411 412 0.0296412
r805 410 1066 0.0062
r806 410 412 0.0296412
r807 408 1070 0.1322
r808 408 409 0.0296412
r809 407 708 0.244
r810 406 407 0.00411102
r811 405 406 0.138
r812 403 703 0.244
r813 402 405 0.138
r814 402 403 0.00411102
r815 400 1060 0.2462
r816 400 401 0.0296412
r817 398 1056 0.0918
r818 398 399 0.0296412
r819 396 1050 0.0782
r820 396 397 0.0296412
r821 393 1186 0.0422324
r822 392 394 0.045481
r823 392 393 8
r824 390 1183 0.0421183
r825 389 390 8
r826 386 982 0.119665
r827 386 387 0.035
r828 385 699 0.2256
r829 384 979 0.1428
r830 382 982 0.0719553
r831 382 384 0.07
r832 380 692 0.2256
r833 380 381 0.00770322
r834 378 685 0.2256
r835 378 379 0.00770322
r836 377 678 0.2254
r837 375 671 0.2256
r838 375 376 0.00770322
r839 373 664 0.2254
r840 373 374 0.00770322
r841 371 657 0.2256
r842 371 372 0.00770322
r843 369 650 0.2254
r844 369 370 0.00770322
r845 367 643 0.2256
r846 367 368 0.00770322
r847 365 636 0.2254
r848 365 366 0.00770322
r849 363 629 0.2256
r850 363 364 0.00770322
r851 361 622 0.2254
r852 361 362 0.00770322
r853 359 615 0.2256
r854 359 360 0.00770322
r855 357 608 0.2254
r856 357 358 0.00770322
r857 355 601 0.2256
r858 355 356 0.00770322
r859 353 594 0.2254
r860 353 354 0.00770322
r861 351 587 0.2256
r862 351 352 0.00770322
r863 349 580 0.2254
r864 349 350 0.00770322
r865 347 573 0.2256
r866 347 348 0.00770322
r867 345 566 0.2254
r868 345 346 0.00770322
r869 343 559 0.2256
r870 343 344 0.00770322
r871 341 552 0.2254
r872 341 342 0.00770322
r873 339 944 0.1318
r874 339 340 0.0296412
r875 338 947 0.0862
r876 338 340 0.0296412
r877 336 545 0.2256
r878 336 337 0.0296412
r879 334 538 0.2254
r880 334 335 0.00770322
r881 333 531 0.244
r882 331 527 0.2254
r883 331 332 0.00770322
r884 329 996 0.0838
r885 329 330 0.0296412
r886 328 999 0.1342
r887 328 330 0.0296412
r888 326 516 0.2254
r889 326 327 0.0296412
r890 325 520 0.244
r891 324 325 0.00411102
r892 323 324 0.138
r893 321 508 0.244
r894 320 323 0.138
r895 320 321 0.00411102
r896 319 504 0.2438
r897 317 986 0.1018
r898 317 318 0.0296412
r899 316 990 0.1162
r900 316 318 0.0296412
r901 315 495 0.2438
r902 314 315 0.00411102
r903 313 314 0.138
r904 311 490 0.2438
r905 310 313 0.138
r906 310 311 0.00411102
r907 308 917 0.0118
r908 308 309 0.0296412
r909 307 920 0.1102
r910 307 309 0.0296412
r911 306 986 0.7502
r912 305 473 0.0296412
r913 304 474 0.039111
r914 304 305 0.206
r915 303 471 0.0296412
r916 302 473 0.0296412
r917 302 303 0.206
r918 301 469 0.0296412
r919 300 471 0.0296412
r920 300 301 0.206
r921 299 467 0.0296412
r922 298 469 0.0296412
r923 298 299 0.206
r924 297 465 0.0296412
r925 296 467 0.0296412
r926 296 297 0.206
r927 295 462 0.0296412
r928 294 465 0.0296412
r929 294 295 0.206
r930 293 460 0.0296412
r931 292 463 0.039111
r932 292 293 0.206
r933 291 458 0.0296412
r934 290 462 0.0296412
r935 290 291 0.206
r936 289 456 0.0296412
r937 288 460 0.0296412
r938 288 289 0.206
r939 287 454 0.0296412
r940 286 458 0.0296412
r941 286 287 0.206
r942 285 452 0.0296412
r943 284 456 0.0296412
r944 284 285 0.206
r945 283 450 0.0296412
r946 282 454 0.0296412
r947 282 283 0.206
r948 281 448 0.0296412
r949 280 452 0.0296412
r950 280 281 0.206
r951 279 446 0.0296412
r952 278 450 0.0296412
r953 278 279 0.206
r954 277 444 0.0296412
r955 276 448 0.0296412
r956 276 277 0.206
r957 275 442 0.0296412
r958 274 446 0.0296412
r959 274 275 0.206
r960 273 440 0.0296412
r961 272 444 0.0296412
r962 272 273 0.206
r963 271 438 0.00770322
r964 270 442 0.0296412
r965 270 271 0.206
r966 269 1143 0.00770322
r967 268 438 0.0296412
r968 268 269 0.0664
r969 267 436 0.0296412
r970 266 440 0.0296412
r971 266 267 0.206