* File: hw2_part2_1.pex.spi.pex
* Created: Fri Nov 12 00:26:58 2021
* Program "Calibre xRC"
* Version "v2021.1_33.19"
* Nominal Temperature: 27C
* Circuit Temperature: 27C
* 
.subckt PM_HW2_PART2_1%IN 4 8 17
c0 17 0 0.12361f
c1 14 0 0.127559f
c2 8 0 0.201394f
c3 4 0 0.351904f
r4 11 14 5.90526
r5 11 17 13.2552
r6 6 14 5.62351
r7 6 8 80.5
r8 2 14 5.62351
r9 2 4 134.75
.ends

.subckt PM_HW2_PART2_1%OUT 7 12 19 23 39
c0 29 0 0.128055f
c1 27 0 0.112014f
c2 23 0 0.211318f
c3 19 0 0.354925f
c4 15 0 0.376678f
c5 10 0 0.332212f
c6 6 0 0.0510531f
c7 2 0 0.0771303f
r8 37 39 0.00122807
r9 27 37 0.00233333
r10 26 29 5.90526
r11 26 27 13.2552
r12 21 29 5.62351
r13 21 23 80.5
r14 17 29 5.62351
r15 17 19 134.75
r16 14 15 16.3327
r17 12 14 4.608
r18 9 10 5.44423
r19 7 9 1.24541
r20 5 10 0.353
r21 5 6 0.0296412
r22 4 15 0.5678
r23 4 6 0.0296412
r24 3 6 0.00770322
r25 2 37 0.0206011
r26 2 3 0.196
.ends

.subckt PM_HW2_PART2_1%OUT2 7 12 19 23 38
c0 29 0 0.129935f
c1 27 0 0.130275f
c2 23 0 0.213716f
c3 19 0 0.215044f
c4 15 0 0.409519f
c5 10 0 0.329298f
c6 6 0 0.0510531f
c7 2 0 0.0771303f
r8 38 39 0.00307018
r9 27 38 0.00785965
r10 26 29 5.90526
r11 26 27 13.2552
r12 21 29 5.62351
r13 21 23 81.5
r14 17 29 5.62351
r15 17 19 83.75
r16 14 15 16.3327
r17 12 14 4.608
r18 9 10 5.44423
r19 7 9 1.24541
r20 5 10 0.343
r21 5 6 0.0296412
r22 4 15 0.5778
r23 4 6 0.0296412
r24 3 6 0.00770322
r25 2 39 0.0206011
r26 2 3 0.196
.ends

.subckt PM_HW2_PART2_1%OUT3 9 10 15 26 30 34 38 42 46 50 54 58 62
c0 74 0 0.34425f
c1 72 0 0.649157f
c2 64 0 0.0947087f
c3 62 0 0.214707f
c4 58 0 0.251532f
c5 54 0 0.180154f
c6 50 0 0.209893f
c7 46 0 0.179858f
c8 42 0 0.2096f
c9 38 0 0.178991f
c10 34 0 0.208733f
c11 30 0 0.203664f
c12 26 0 0.232171f
c13 18 0 0.366367f
c14 13 0 0.37368f
c15 7 0 0.025289f
c16 6 0 0.0449636f
c17 2 0 0.0700324f
r18 73 74 10.8947
r19 71 73 4.01053
r20 71 72 4.4184
r21 69 71 6.88421
r22 68 69 10.8947
r23 67 72 0.21
r24 66 68 9.22105
r25 66 67 4.4184
r26 64 66 1.67368
r27 60 74 5.62351
r28 60 62 92
r29 56 74 5.62351
r30 56 58 109.1
r31 52 73 5.62351
r32 52 54 92
r33 48 73 5.62351
r34 48 50 109.1
r35 44 69 5.62351
r36 44 46 92
r37 40 69 5.62351
r38 40 42 109.1
r39 36 68 5.62351
r40 36 38 92
r41 32 68 5.62351
r42 32 34 109.1
r43 28 64 5.62351
r44 28 30 92
r45 24 64 5.62351
r46 24 26 109.1
r47 18 20 0.2
r48 17 20 8.16635
r49 17 18 5.44423
r50 15 17 0.9216
r51 12 13 5.44423
r52 10 12 1.24541
r53 7 67 0.0701228
r54 7 9 0.0270175
r55 5 13 0.403
r56 5 6 0.0296412
r57 4 20 0.2178
r58 4 6 0.0296412
r59 3 6 0.00770322
r60 2 9 0.0183407
r61 2 3 0.178
.ends

.subckt PM_HW2_PART2_1%OUT4 26 28 29 33 34 38 43 44 50 51 57 66 70 74 78 82 86
+ 90 94 98 102 106 110 114 118 122 126 130 134 138 142 146 150 154 158 162 166
+ 170 174 178 182 186 190 194 198 202 206 210 214 218 222 226 230 234 238 242
+ 246 250 254 258 262
c0 319 0 1.93097f
c1 317 0 3.62478f
c2 262 0 0.239461f
c3 258 0 0.236411f
c4 254 0 0.212622f
c5 250 0 0.209898f
c6 246 0 0.212324f
c7 242 0 0.2096f
c8 238 0 0.212295f
c9 234 0 0.209571f
c10 230 0 0.212292f
c11 226 0 0.209569f
c12 222 0 0.212292f
c13 218 0 0.209568f
c14 214 0 0.212292f
c15 210 0 0.209568f
c16 206 0 0.212292f
c17 202 0 0.209568f
c18 198 0 0.212292f
c19 194 0 0.209568f
c20 190 0 0.212292f
c21 186 0 0.209568f
c22 182 0 0.212292f
c23 178 0 0.209568f
c24 174 0 0.212292f
c25 170 0 0.209568f
c26 166 0 0.212292f
c27 162 0 0.209568f
c28 158 0 0.212292f
c29 154 0 0.209568f
c30 150 0 0.212292f
c31 146 0 0.209568f
c32 142 0 0.212292f
c33 138 0 0.209568f
c34 134 0 0.212292f
c35 130 0 0.209568f
c36 126 0 0.212292f
c37 122 0 0.209568f
c38 118 0 0.212292f
c39 114 0 0.209568f
c40 110 0 0.212292f
c41 106 0 0.209568f
c42 102 0 0.212292f
c43 98 0 0.209568f
c44 94 0 0.212292f
c45 90 0 0.209568f
c46 86 0 0.212292f
c47 82 0 0.209568f
c48 78 0 0.211453f
c49 74 0 0.20873f
c50 70 0 0.238201f
c51 66 0 0.232304f
c52 60 0 0.351796f
c53 54 0 0.537103f
c54 47 0 0.542852f
c55 41 0 0.281906f
c56 37 0 0.427849f
c57 32 0 0.433599f
c58 27 0 0.0794963f
c59 24 0 0.0291243f
c60 23 0 0.0227599f
c61 21 0 0.00294012f
c62 19 0 0.0539228f
c63 17 0 0.0546555f
c64 11 0 0.136419f
c65 8 0 0.182245f
c66 6 0 0.185938f
c67 5 0 0.0746126f
c68 4 0 0.20569f
c69 3 0 0.0753452f
c70 2 0 0.205911f
r71 318 319 10.8947
r72 316 318 4.02632
r73 316 317 4.4184
r74 314 316 6.86842
r75 313 314 10.8947
r76 312 317 0.21
r77 311 313 9.23684
r78 311 312 4.4184
r79 309 311 1.65789
r80 308 309 10.8947
r81 307 308 10.8947
r82 306 312 0.21
r83 305 307 3.55263
r84 305 306 4.4184
r85 303 305 7.34211
r86 302 303 10.8947
r87 301 306 0.21
r88 300 302 8.76316
r89 300 301 4.4184
r90 298 300 2.13158
r91 297 298 10.8947
r92 296 297 10.8947
r93 295 301 0.21
r94 294 296 3.07895
r95 294 295 4.4184
r96 292 294 7.81579
r97 291 292 10.8947
r98 290 295 0.21
r99 289 291 8.28947
r100 289 290 4.4184
r101 287 289 2.60526
r102 286 287 10.8947
r103 285 286 10.8947
r104 284 290 0.21
r105 283 285 2.60526
r106 283 284 4.4184
r107 281 283 8.28947
r108 280 281 10.8947
r109 279 284 0.21
r110 278 280 7.81579
r111 278 279 4.4184
r112 276 278 3.07895
r113 275 276 10.8947
r114 274 275 10.8947
r115 273 279 0.209877
r116 272 274 2.11579
r117 272 273 4.4184
r118 270 272 8.77895
r119 269 270 10.8947
r120 268 273 0.21
r121 267 269 7.32632
r122 267 268 4.4184
r123 264 267 3.56842
r124 260 319 5.62351
r125 260 262 110.35
r126 256 319 5.62351
r127 256 258 109.1
r128 252 318 5.62351
r129 252 254 110.35
r130 248 318 5.62351
r131 248 250 109.1
r132 244 314 5.62351
r133 244 246 110.35
r134 240 314 5.62351
r135 240 242 109.1
r136 236 313 5.62351
r137 236 238 110.35
r138 232 313 5.62351
r139 232 234 109.1
r140 228 309 5.62351
r141 228 230 110.35
r142 224 309 5.62351
r143 224 226 109.1
r144 220 308 5.62351
r145 220 222 110.35
r146 216 308 5.62351
r147 216 218 109.1
r148 212 307 5.62351
r149 212 214 110.35
r150 208 307 5.62351
r151 208 210 109.1
r152 204 303 5.62351
r153 204 206 110.35
r154 200 303 5.62351
r155 200 202 109.1
r156 196 302 5.62351
r157 196 198 110.35
r158 192 302 5.62351
r159 192 194 109.1
r160 188 298 5.62351
r161 188 190 110.35
r162 184 298 5.62351
r163 184 186 109.1
r164 180 297 5.62351
r165 180 182 110.35
r166 176 297 5.62351
r167 176 178 109.1
r168 172 296 5.62351
r169 172 174 110.35
r170 168 296 5.62351
r171 168 170 109.1
r172 164 292 5.62351
r173 164 166 110.35
r174 160 292 5.62351
r175 160 162 109.1
r176 156 291 5.62351
r177 156 158 110.35
r178 152 291 5.62351
r179 152 154 109.1
r180 148 287 5.62351
r181 148 150 110.35
r182 144 287 5.62351
r183 144 146 109.1
r184 140 286 5.62351
r185 140 142 110.35
r186 136 286 5.62351
r187 136 138 109.1
r188 132 285 5.62351
r189 132 134 110.35
r190 128 285 5.62351
r191 128 130 109.1
r192 124 281 5.62351
r193 124 126 110.35
r194 120 281 5.62351
r195 120 122 109.1
r196 116 280 5.62351
r197 116 118 110.35
r198 112 280 5.62351
r199 112 114 109.1
r200 108 276 5.62351
r201 108 110 110.35
r202 104 276 5.62351
r203 104 106 109.1
r204 100 275 5.62351
r205 100 102 110.35
r206 96 275 5.62351
r207 96 98 109.1
r208 92 274 5.62351
r209 92 94 110.35
r210 88 274 5.62351
r211 88 90 109.1
r212 84 270 5.62351
r213 84 86 110.35
r214 80 270 5.62351
r215 80 82 109.1
r216 76 269 5.62351
r217 76 78 110.35
r218 72 269 5.62351
r219 72 74 109.1
r220 68 264 5.62351
r221 68 70 110.35
r222 64 264 5.62351
r223 64 66 109.1
r224 60 62 0.2
r225 59 62 8.16635
r226 59 60 5.44423
r227 57 59 0.9216
r228 54 56 0.2
r229 53 56 8.16635
r230 53 54 5.44423
r231 51 53 0.9216
r232 50 53 0.9144
r233 47 49 0.2
r234 46 49 8.16635
r235 46 47 5.44423
r236 44 46 0.9216
r237 43 46 0.9144
r238 40 41 5.44423
r239 38 40 1.24541
r240 36 37 5.44423
r241 34 36 1.24541
r242 33 36 1.23568
r243 31 32 5.44423
r244 29 31 1.24541
r245 28 31 1.23568
r246 26 27 0.0269372
r247 24 268 0.0701228
r248 24 26 0.0184211
r249 22 41 0.263
r250 22 23 0.0296412
r251 20 62 0.2212
r252 20 21 0.035
r253 18 37 0.263
r254 18 19 0.00770322
r255 16 56 0.2212
r256 16 17 0.00770322
r257 15 32 0.263
r258 14 49 0.2212
r259 13 21 0.035
r260 13 27 0.202
r261 11 23 0.0296412
r262 10 21 0.035
r263 10 11 0.21
r264 9 19 0.0296412
r265 8 23 0.00770322
r266 8 9 0.206
r267 7 17 0.0296412
r268 6 21 0.035
r269 6 7 0.206
r270 5 15 0.039111
r271 4 19 0.0296412
r272 4 5 0.206
r273 3 14 0.039111
r274 2 17 0.0296412
r275 2 3 0.206
.ends

.subckt PM_HW2_PART2_1%VSS 48 144 149 154 161 168 169 175 176 182 189 190 196
+ 197 203 204 210 211 217 218 224 225 231 232 238 239 245 246 252 253 259 260
+ 266 267 367
c0 359 0 0.0285403f
c1 357 0 0.0285403f
c2 347 0 0.0285403f
c3 345 0 0.0285403f
c4 340 0 0.118603f
c5 337 0 0.118603f
c6 273 0 0.0224261f
c7 270 0 0.552945f
c8 263 0 0.545132f
c9 256 0 0.545132f
c10 249 0 0.545132f
c11 242 0 0.545132f
c12 235 0 0.545132f
c13 228 0 0.545132f
c14 221 0 0.545132f
c15 214 0 0.545132f
c16 207 0 0.545132f
c17 200 0 0.545132f
c18 193 0 0.545132f
c19 185 0 0.338311f
c20 179 0 0.546637f
c21 172 0 0.545132f
c22 164 0 0.33696f
c23 157 0 0.3779f
c24 152 0 0.123047f
c25 147 0 0.110047f
c26 90 0 0.0211665f
c27 71 0 0.0331824f
c28 46 0 0.0502528f
c29 44 0 0.0285403f
c30 40 0 0.0285403f
c31 36 0 0.0285403f
c32 32 0 0.0285403f
c33 28 0 0.0285403f
c34 24 0 0.0285403f
c35 20 0 0.0285403f
c36 16 0 0.0285403f
c37 12 0 0.0285403f
c38 9 0 0.0276029f
c39 8 0 0.106756f
c40 7 0 0.0188542f
c41 5 0 0.0276029f
c42 4 0 0.0896021f
c43 3 0 0.0195123f
r44 345 373 0.035
r45 340 369 0.0349003
r46 338 367 0.0195555
r47 290 373 0.00391028
r48 279 369 0.00421083
r49 273 367 0.0195555
r50 270 272 0.2
r51 269 272 8.16635
r52 269 270 5.44423
r53 267 269 0.918
r54 266 269 0.918
r55 263 265 0.2
r56 262 265 8.16635
r57 262 263 5.44423
r58 260 262 0.918
r59 259 262 0.918
r60 256 258 0.2
r61 255 258 8.16635
r62 255 256 5.44423
r63 253 255 0.918
r64 252 255 0.918
r65 249 251 0.2
r66 249 324 0.2422
r67 248 251 8.16635
r68 248 249 5.44423
r69 246 248 0.918
r70 245 248 0.918
r71 242 244 0.2
r72 242 320 0.2422
r73 241 244 8.16635
r74 241 242 5.44423
r75 239 241 0.918
r76 238 241 0.918
r77 235 237 0.2
r78 234 237 8.16635
r79 234 235 5.44423
r80 232 234 0.918
r81 231 234 0.918
r82 228 230 0.2
r83 227 230 8.16635
r84 227 228 5.44423
r85 225 227 0.918
r86 224 227 0.918
r87 221 223 0.2
r88 220 223 8.16635
r89 220 221 5.44423
r90 218 220 0.918
r91 217 220 0.918
r92 214 216 0.2
r93 213 216 8.16635
r94 213 214 5.44423
r95 211 213 0.918
r96 210 213 0.918
r97 207 209 0.2
r98 206 209 8.16635
r99 206 207 5.44423
r100 204 206 0.918
r101 203 206 0.918
r102 200 202 0.2
r103 199 202 8.16635
r104 199 200 5.44423
r105 197 199 0.9216
r106 196 199 0.9144
r107 193 195 0.2
r108 193 298 0.2422
r109 192 195 8.16635
r110 192 193 5.44423
r111 190 192 0.9216
r112 189 192 0.9144
r113 185 188 0.2
r114 185 294 0.2422
r115 184 188 8.16635
r116 184 185 5.44423
r117 182 184 0.9144
r118 179 181 0.2
r119 179 290 0.2422
r120 178 181 8.16635
r121 178 179 5.44423
r122 176 178 0.9216
r123 175 178 0.9144
r124 172 174 0.2
r125 171 174 8.16635
r126 171 172 5.44423
r127 169 171 0.9216
r128 168 171 0.9144
r129 164 167 0.2
r130 164 283 0.2422
r131 163 167 8.16635
r132 163 164 5.44423
r133 161 163 0.9144
r134 157 160 0.2
r135 157 279 0.2422
r136 156 160 8.16635
r137 156 157 5.44423
r138 154 156 0.9144
r139 152 276 0.1422
r140 151 152 16.3327
r141 149 151 4.572
r142 147 273 0.1422
r143 146 147 16.3327
r144 144 146 4.572
r145 141 142 5.44423
r146 138 141 25.92
r147 138 139 5.44423
r148 136 362 0.065
r149 135 138 25.92
r150 135 136 8.16635
r151 133 324 0.00770322
r152 133 359 0.0296412
r153 133 362 0.0296412
r154 132 135 8.64
r155 132 133 16.3327
r156 130 359 0.153
r157 130 360 0.053
r158 129 132 17.28
r159 129 130 8.16635
r160 127 320 0.00770322
r161 127 357 0.0296412
r162 127 360 0.0296412
r163 126 129 8.64
r164 126 127 16.3327
r165 124 357 0.165
r166 123 126 17.28
r167 123 124 8.16635
r168 120 123 17.28
r169 120 121 5.44423
r170 115 116 5.44423
r171 112 115 25.92
r172 112 113 5.44423
r173 109 112 25.92
r174 109 110 5.44423
r175 106 109 25.92
r176 106 107 5.44423
r177 104 350 0.0652
r178 103 106 25.902
r179 103 104 8.16635
r180 101 298 0.00770322
r181 101 347 0.0296412
r182 101 350 0.0296412
r183 100 103 8.64
r184 100 101 16.3327
r185 98 347 0.1528
r186 98 348 0.0532
r187 97 100 17.28
r188 97 98 8.16635
r189 94 294 0.00770322
r190 94 348 0.0296412
r191 93 97 8.64
r192 93 94 16.3327
r193 90 375 0.0555172
r194 90 373 0.0249425
r195 89 90 16.3327
r196 87 345 0.1322
r197 86 89 17.28
r198 86 87 5.44423
r199 82 343 0.0618
r200 81 82 8.16635
r201 78 283 0.00770322
r202 78 343 0.0296412
r203 77 81 8.64
r204 77 78 16.3327
r205 71 369 0.00119658
r206 70 71 8.16635
r207 67 340 0.2998
r208 67 341 0.0622
r209 66 67 16.3327
r210 61 276 0.00770322
r211 61 337 0.0296412
r212 61 341 0.0296412
r213 60 61 16.3327
r214 57 337 0.2998
r215 57 338 0.0622
r216 56 57 16.3327
r217 50 367 16.3327
r218 48 120 17.28
r219 48 115 8.64
r220 48 86 8.64
r221 48 81 17.28
r222 48 70 4.32
r223 48 66 4.32
r224 48 60 4.32
r225 48 56 4.32
r226 48 50 4.32
r227 47 270 0.2422
r228 46 142 0.117
r229 46 47 0.039111
r230 44 139 0.129
r231 44 45 0.0296412
r232 43 142 0.089
r233 43 45 0.0296412
r234 42 263 0.2422
r235 42 45 0.00770322
r236 40 136 0.141
r237 40 41 0.0296412
r238 39 139 0.077
r239 39 41 0.0296412
r240 38 256 0.2422
r241 38 41 0.00770322
r242 36 121 0.081
r243 36 37 0.0296412
r244 35 124 0.041
r245 35 37 0.0296412
r246 34 235 0.2422
r247 34 37 0.00770322
r248 32 116 0.093
r249 32 33 0.0296412
r250 31 121 0.125
r251 31 33 0.0296412
r252 30 228 0.2422
r253 30 33 0.00770322
r254 28 113 0.105
r255 28 29 0.0296412
r256 27 116 0.113
r257 27 29 0.0296412
r258 26 221 0.2422
r259 26 29 0.00770322
r260 24 110 0.117
r261 24 25 0.0296412
r262 23 113 0.101
r263 23 25 0.0296412
r264 22 214 0.2422
r265 22 25 0.00770322
r266 20 107 0.129
r267 20 21 0.0296412
r268 19 110 0.089
r269 19 21 0.0296412
r270 18 207 0.2422
r271 18 21 0.00770322
r272 16 104 0.1408
r273 16 17 0.0296412
r274 15 107 0.077
r275 15 17 0.0296412
r276 14 200 0.2422
r277 14 17 0.00770322
r278 12 82 0.1442
r279 12 13 0.0296412
r280 11 87 0.0738
r281 11 13 0.0296412
r282 10 172 0.2422
r283 10 13 0.00770322
r284 8 94 0.0296412
r285 8 9 0.282
r286 7 375 0.00391028
r287 6 9 0.039111
r288 6 7 0.0684
r289 4 78 0.0296412
r290 4 5 0.2376
r291 3 71 0.122849
r292 2 5 0.039111
r293 2 3 0.0734
.ends

.subckt PM_HW2_PART2_1%VDD 71 72 77 82 87 92 93 97 98 102 109 110 116 117 123
+ 124 130 131 137 138 144 145 151 152 158 159 165 166 172 173 179 180 186 187
+ 298
c0 296 0 0.0224261f
c1 275 0 0.0111766f
c2 272 0 0.0110047f
c3 267 0 0.026328f
c4 190 0 0.554991f
c5 183 0 0.550928f
c6 176 0 0.550928f
c7 169 0 0.550928f
c8 162 0 0.550928f
c9 155 0 0.550928f
c10 148 0 0.550928f
c11 141 0 0.550928f
c12 134 0 0.550928f
c13 127 0 0.550928f
c14 120 0 0.550928f
c15 113 0 0.550928f
c16 105 0 0.36109f
c17 101 0 0.425104f
c18 96 0 0.424393f
c19 90 0 0.277351f
c20 85 0 0.318163f
c21 80 0 0.317743f
c22 75 0 0.276693f
c23 69 0 0.0063307f
c24 67 0 0.0063307f
c25 65 0 0.0063307f
c26 63 0 0.0063307f
c27 61 0 0.0063307f
c28 59 0 0.0063307f
c29 57 0 0.0063307f
c30 55 0 0.0063307f
c31 53 0 0.0063307f
c32 51 0 0.0063307f
c33 49 0 0.0063307f
c34 46 0 0.0115203f
c35 44 0 0.0113287f
c36 34 0 0.0110047f
c37 30 0 0.102339f
c38 28 0 0.0836766f
c39 26 0 0.0836766f
c40 24 0 0.0836766f
c41 22 0 0.0836766f
c42 20 0 0.0836766f
c43 18 0 0.0836766f
c44 16 0 0.0836766f
c45 14 0 0.0836766f
c46 12 0 0.0836766f
c47 10 0 0.0836766f
c48 8 0 0.0836766f
c49 7 0 0.0201895f
c50 5 0 0.108842f
c51 4 0 0.101341f
c52 3 0 0.0201653f
r53 296 298 0.0195555
r54 269 298 0.0195555
r55 266 267 5.44423
r56 264 267 0.288
r57 263 266 25.92
r58 263 264 5.44423
r59 261 264 0.288
r60 260 263 25.92
r61 260 261 5.44423
r62 258 261 0.288
r63 257 260 25.92
r64 257 258 5.44423
r65 255 258 0.288
r66 254 257 25.92
r67 254 255 5.44423
r68 252 255 0.288
r69 251 254 25.92
r70 251 252 5.44423
r71 249 252 0.288
r72 248 251 25.92
r73 248 249 5.44423
r74 246 249 0.288
r75 245 248 25.92
r76 245 246 5.44423
r77 243 246 0.288
r78 242 245 25.92
r79 242 243 5.44423
r80 240 243 0.288
r81 239 242 25.92
r82 239 240 5.44423
r83 235 240 0.2878
r84 234 235 5.44423
r85 232 235 0.288
r86 231 234 25.92
r87 231 232 5.44423
r88 228 231 25.92
r89 228 229 8.16635
r90 226 229 0.192
r91 225 228 17.28
r92 225 226 5.44423
r93 223 226 0.288
r94 223 279 0.1642
r95 222 225 25.92
r96 222 223 5.44423
r97 220 275 0.0296412
r98 220 279 0.0296412
r99 219 222 17.28
r100 219 220 16.3327
r101 217 275 0.1498
r102 216 219 17.28
r103 216 217 8.16635
r104 214 217 0.192
r105 214 276 0.1582
r106 213 216 17.28
r107 213 214 5.44423
r108 211 299 0.00770322
r109 211 272 0.0296412
r110 211 276 0.0296412
r111 210 213 17.28
r112 210 211 16.3327
r113 208 272 0.0598
r114 207 210 8.64
r115 207 208 16.3327
r116 205 208 0.192
r117 204 207 17.28
r118 204 205 5.44423
r119 201 204 17.28
r120 201 202 16.3327
r121 199 202 0.192
r122 199 269 0.1582
r123 198 201 17.28
r124 198 199 5.44423
r125 194 198 17.28
r126 194 298 16.3327
r127 190 192 0.2
r128 189 192 8.16635
r129 189 190 5.44423
r130 187 189 0.918
r131 186 189 0.918
r132 183 185 0.2
r133 182 185 8.16635
r134 182 183 5.44423
r135 180 182 0.918
r136 179 182 0.918
r137 176 178 0.2
r138 175 178 8.16635
r139 175 176 5.44423
r140 173 175 0.918
r141 172 175 0.918
r142 169 171 0.2
r143 168 171 8.16635
r144 168 169 5.44423
r145 166 168 0.918
r146 165 168 0.918
r147 162 164 0.2
r148 161 164 8.16635
r149 161 162 5.44423
r150 159 161 0.918
r151 158 161 0.918
r152 155 157 0.2
r153 154 157 8.16635
r154 154 155 5.44423
r155 152 154 0.918
r156 151 154 0.918
r157 148 150 0.2
r158 147 150 8.16635
r159 147 148 5.44423
r160 145 147 0.918
r161 144 147 0.918
r162 141 143 0.2
r163 140 143 8.16635
r164 140 141 5.44423
r165 138 140 0.918
r166 137 140 0.918
r167 134 136 0.2
r168 133 136 8.16635
r169 133 134 5.44423
r170 131 133 0.918
r171 130 133 0.918
r172 127 129 0.2
r173 126 129 8.16635
r174 126 127 5.44423
r175 124 126 0.918
r176 123 126 0.918
r177 120 122 0.2
r178 119 122 8.16635
r179 119 120 5.44423
r180 117 119 0.9216
r181 116 119 0.9144
r182 113 115 0.2
r183 112 115 8.16635
r184 112 113 5.44423
r185 110 112 0.9216
r186 109 112 0.9144
r187 105 108 0.2
r188 104 108 8.16635
r189 104 105 5.44423
r190 102 104 0.9144
r191 100 101 5.44423
r192 98 100 1.24541
r193 97 100 1.23568
r194 95 96 5.44423
r195 93 95 1.24541
r196 92 95 1.23568
r197 89 90 5.44423
r198 87 89 1.23568
r199 85 299 0.387
r200 84 85 5.44423
r201 82 84 1.23568
r202 79 80 5.44423
r203 77 79 1.23568
r204 75 296 0.387
r205 74 75 5.44423
r206 72 74 1.23568
r207 71 239 12.942
r208 71 234 12.96
r209 70 192 0.2256
r210 68 185 0.2256
r211 68 69 0.00770322
r212 66 178 0.2256
r213 66 67 0.00770322
r214 64 171 0.2256
r215 64 65 0.00770322
r216 62 164 0.2256
r217 62 63 0.00770322
r218 60 157 0.2256
r219 60 61 0.00770322
r220 58 150 0.2256
r221 58 59 0.00770322
r222 56 143 0.2256
r223 56 57 0.00770322
r224 54 136 0.2256
r225 54 55 0.00770322
r226 52 129 0.2256
r227 52 53 0.00770322
r228 50 122 0.2256
r229 50 51 0.00770322
r230 48 115 0.2256
r231 48 49 0.00770322
r232 46 229 0.1318
r233 46 47 0.0296412
r234 45 232 0.0862
r235 45 47 0.0296412
r236 43 108 0.2256
r237 43 44 0.0296412
r238 42 101 0.244
r239 41 96 0.244
r240 40 41 0.00411102
r241 39 40 0.138
r242 37 90 0.244
r243 36 39 0.138
r244 36 37 0.00411102
r245 34 202 0.0118
r246 34 35 0.0296412
r247 33 205 0.1102
r248 33 35 0.0296412
r249 32 80 0.387
r250 32 35 0.00770322
r251 31 69 0.0296412
r252 30 70 0.039111
r253 30 31 0.206
r254 29 67 0.0296412
r255 28 69 0.0296412
r256 28 29 0.206
r257 27 65 0.0296412
r258 26 67 0.0296412
r259 26 27 0.206
r260 25 63 0.0296412
r261 24 65 0.0296412
r262 24 25 0.206
r263 23 61 0.0296412
r264 22 63 0.0296412
r265 22 23 0.206
r266 21 59 0.0296412
r267 20 61 0.0296412
r268 20 21 0.206
r269 19 57 0.0296412
r270 18 59 0.0296412
r271 18 19 0.206
r272 17 55 0.0296412
r273 16 57 0.0296412
r274 16 17 0.206
r275 15 53 0.0296412
r276 14 55 0.0296412
r277 14 15 0.206
r278 13 51 0.0296412
r279 12 53 0.0296412
r280 12 13 0.206
r281 11 49 0.0296412
r282 10 51 0.0296412
r283 10 11 0.206
r284 9 44 0.00770322
r285 8 49 0.0296412
r286 8 9 0.206
r287 7 47 0.00770322
r288 6 44 0.0296412
r289 6 7 0.0664
r290 5 40 0.035
r291 4 42 0.039111
r292 4 5 0.206
r293 3 220 0.00770322
r294 2 39 0.00411102
r295 2 3 0.073
.ends

.subckt PM_HW2_PART2_1%OUT5 53 104 105 111 112 118 119 125 126 132 133 139 140
+ 146 147 153 154 160 161 167 168 174 175 181 182 188 195 196 202 203 209 210
+ 216 217 223 224 230 231 237 238 244 245 251 252 258 259 265 266 272 273 279
c0 282 0 0.280362f
c1 276 0 0.537103f
c2 269 0 0.537103f
c3 262 0 0.537103f
c4 255 0 0.537103f
c5 248 0 0.537103f
c6 241 0 0.537103f
c7 234 0 0.537103f
c8 227 0 0.537103f
c9 220 0 0.537103f
c10 213 0 0.537103f
c11 206 0 0.537103f
c12 199 0 0.542852f
c13 191 0 0.290001f
c14 185 0 0.556239f
c15 178 0 0.556239f
c16 171 0 0.556239f
c17 164 0 0.556239f
c18 157 0 0.556239f
c19 150 0 0.556239f
c20 143 0 0.556239f
c21 136 0 0.556239f
c22 129 0 0.556239f
c23 122 0 0.556239f
c24 115 0 0.556239f
c25 108 0 0.562109f
c26 103 0 0.0155764f
c27 101 0 0.0155764f
c28 99 0 0.0546555f
c29 97 0 0.0546555f
c30 95 0 0.0546555f
c31 93 0 0.0546555f
c32 91 0 0.0546555f
c33 89 0 0.0546555f
c34 87 0 0.0546555f
c35 85 0 0.0546555f
c36 83 0 0.0546555f
c37 81 0 0.0546555f
c38 79 0 0.0546555f
c39 77 0 0.0546555f
c40 75 0 0.0546555f
c41 73 0 0.0546555f
c42 71 0 0.0546555f
c43 69 0 0.0546555f
c44 67 0 0.0546555f
c45 65 0 0.0546555f
c46 63 0 0.0546555f
c47 61 0 0.0546555f
c48 59 0 0.0546555f
c49 57 0 0.0546555f
c50 53 0 0.13475f
c51 48 0 0.184802f
c52 46 0 0.18534f
c53 44 0 0.206211f
c54 42 0 0.206749f
c55 40 0 0.206211f
c56 38 0 0.206749f
c57 36 0 0.206211f
c58 34 0 0.206749f
c59 32 0 0.206211f
c60 30 0 0.206749f
c61 28 0 0.206211f
c62 26 0 0.206749f
c63 24 0 0.206211f
c64 22 0 0.206749f
c65 20 0 0.206211f
c66 18 0 0.206749f
c67 16 0 0.206211f
c68 14 0 0.206749f
c69 12 0 0.206211f
c70 10 0 0.206749f
c71 8 0 0.206211f
c72 6 0 0.206749f
c73 5 0 0.0753452f
c74 4 0 0.205373f
c75 3 0 0.0753452f
c76 2 0 0.205911f
r77 282 284 0.2
r78 281 284 8.16635
r79 281 282 5.44423
r80 279 281 0.918
r81 276 278 0.2
r82 275 278 8.16635
r83 275 276 5.44423
r84 273 275 0.918
r85 272 275 0.918
r86 269 271 0.2
r87 268 271 8.16635
r88 268 269 5.44423
r89 266 268 0.918
r90 265 268 0.918
r91 262 264 0.2
r92 261 264 8.16635
r93 261 262 5.44423
r94 259 261 0.918
r95 258 261 0.918
r96 255 257 0.2
r97 254 257 8.16635
r98 254 255 5.44423
r99 252 254 0.918
r100 251 254 0.918
r101 248 250 0.2
r102 247 250 8.16635
r103 247 248 5.44423
r104 245 247 0.918
r105 244 247 0.918
r106 241 243 0.2
r107 240 243 8.16635
r108 240 241 5.44423
r109 238 240 0.918
r110 237 240 0.918
r111 234 236 0.2
r112 233 236 8.16635
r113 233 234 5.44423
r114 231 233 0.918
r115 230 233 0.918
r116 227 229 0.2
r117 226 229 8.16635
r118 226 227 5.44423
r119 224 226 0.918
r120 223 226 0.918
r121 220 222 0.2
r122 219 222 8.16635
r123 219 220 5.44423
r124 217 219 0.918
r125 216 219 0.918
r126 213 215 0.2
r127 212 215 8.16635
r128 212 213 5.44423
r129 210 212 0.918
r130 209 212 0.918
r131 206 208 0.2
r132 205 208 8.16635
r133 205 206 5.44423
r134 203 205 0.9216
r135 202 205 0.9144
r136 199 201 0.2
r137 198 201 8.16635
r138 198 199 5.44423
r139 196 198 0.9216
r140 195 198 0.9144
r141 191 193 0.2
r142 190 193 8.16635
r143 190 191 5.44423
r144 188 190 0.918
r145 185 187 0.2
r146 184 187 8.16635
r147 184 185 5.44423
r148 182 184 0.918
r149 181 184 0.918
r150 178 180 0.2
r151 177 180 8.16635
r152 177 178 5.44423
r153 175 177 0.918
r154 174 177 0.918
r155 171 173 0.2
r156 170 173 8.16635
r157 170 171 5.44423
r158 168 170 0.918
r159 167 170 0.918
r160 164 166 0.2
r161 163 166 8.16635
r162 163 164 5.44423
r163 161 163 0.918
r164 160 163 0.918
r165 157 159 0.2
r166 156 159 8.16635
r167 156 157 5.44423
r168 154 156 0.918
r169 153 156 0.918
r170 150 152 0.2
r171 149 152 8.16635
r172 149 150 5.44423
r173 147 149 0.918
r174 146 149 0.918
r175 143 145 0.2
r176 142 145 8.16635
r177 142 143 5.44423
r178 140 142 0.918
r179 139 142 0.918
r180 136 138 0.2
r181 135 138 8.16635
r182 135 136 5.44423
r183 133 135 0.918
r184 132 135 0.918
r185 129 131 0.2
r186 128 131 8.16635
r187 128 129 5.44423
r188 126 128 0.918
r189 125 128 0.918
r190 122 124 0.2
r191 121 124 8.16635
r192 121 122 5.44423
r193 119 121 0.918
r194 118 121 0.918
r195 115 117 0.2
r196 114 117 8.16635
r197 114 115 5.44423
r198 112 114 0.9216
r199 111 114 0.9144
r200 108 110 0.2
r201 107 110 8.16635
r202 107 108 5.44423
r203 105 107 0.9216
r204 104 107 0.9144
r205 102 191 0.2264
r206 102 103 0.0296412
r207 100 284 0.2212
r208 100 101 0.0296412
r209 98 185 0.2264
r210 98 99 0.00770322
r211 96 278 0.2212
r212 96 97 0.00770322
r213 94 178 0.2264
r214 94 95 0.00770322
r215 92 271 0.2212
r216 92 93 0.00770322
r217 90 171 0.2264
r218 90 91 0.00770322
r219 88 264 0.2212
r220 88 89 0.00770322
r221 86 164 0.2264
r222 86 87 0.00770322
r223 84 257 0.2212
r224 84 85 0.00770322
r225 82 157 0.2264
r226 82 83 0.00770322
r227 80 250 0.2212
r228 80 81 0.00770322
r229 78 150 0.2264
r230 78 79 0.00770322
r231 76 243 0.2212
r232 76 77 0.00770322
r233 74 143 0.2264
r234 74 75 0.00770322
r235 72 236 0.2212
r236 72 73 0.00770322
r237 70 136 0.2264
r238 70 71 0.00770322
r239 68 229 0.2212
r240 68 69 0.00770322
r241 66 129 0.2264
r242 66 67 0.00770322
r243 64 222 0.2212
r244 64 65 0.00770322
r245 62 122 0.2264
r246 62 63 0.00770322
r247 60 215 0.2212
r248 60 61 0.00770322
r249 58 115 0.2264
r250 58 59 0.00770322
r251 56 208 0.2212
r252 56 57 0.00770322
r253 55 108 0.2264
r254 54 201 0.2212
r255 51 103 0.0296412
r256 51 53 0.1046
r257 50 101 0.0296412
r258 50 53 0.1054
r259 49 99 0.0296412
r260 48 103 0.00770322
r261 48 49 0.205
r262 47 97 0.0296412
r263 46 101 0.00770322
r264 46 47 0.205
r265 45 95 0.0296412
r266 44 99 0.0296412
r267 44 45 0.206
r268 43 93 0.0296412
r269 42 97 0.0296412
r270 42 43 0.206
r271 41 91 0.0296412
r272 40 95 0.0296412
r273 40 41 0.206
r274 39 89 0.0296412
r275 38 93 0.0296412
r276 38 39 0.206
r277 37 87 0.0296412
r278 36 91 0.0296412
r279 36 37 0.206
r280 35 85 0.0296412
r281 34 89 0.0296412
r282 34 35 0.206
r283 33 83 0.0296412
r284 32 87 0.0296412
r285 32 33 0.206
r286 31 81 0.0296412
r287 30 85 0.0296412
r288 30 31 0.206
r289 29 79 0.0296412
r290 28 83 0.0296412
r291 28 29 0.206
r292 27 77 0.0296412
r293 26 81 0.0296412
r294 26 27 0.206
r295 25 75 0.0296412
r296 24 79 0.0296412
r297 24 25 0.206
r298 23 73 0.0296412
r299 22 77 0.0296412
r300 22 23 0.206
r301 21 71 0.0296412
r302 20 75 0.0296412
r303 20 21 0.206
r304 19 69 0.0296412
r305 18 73 0.0296412
r306 18 19 0.206
r307 17 67 0.0296412
r308 16 71 0.0296412
r309 16 17 0.206
r310 15 65 0.0296412
r311 14 69 0.0296412
r312 14 15 0.206
r313 13 63 0.0296412
r314 12 67 0.0296412
r315 12 13 0.206
r316 11 61 0.0296412
r317 10 65 0.0296412
r318 10 11 0.206
r319 9 59 0.0296412
r320 8 63 0.0296412
r321 8 9 0.206
r322 7 57 0.0296412
r323 6 61 0.0296412
r324 6 7 0.206
r325 5 55 0.039111
r326 4 59 0.0296412
r327 4 5 0.206
r328 3 54 0.039111
r329 2 57 0.0296412
r330 2 3 0.206
.ends

